*
*|DSPF 1.3
*|DESIGN bit8final
*|DATE "Tue Nov 22 21:34:54 2016"
*|VENDOR "Synopsys"
*|PROGRAM "StarRC"
*|VERSION "K-2015.06-SP1"
*|DIVIDER |
*|DELIMITER :
**FORMAT STAR
*

** COMMENTS

** OPERATING_TEMPERATURE 25
** GLOBAL_TEMPERATURE 25
** TCAD_GRD_FILE /afs/asu.edu/users/a/p/a/aparame2/425_lab/iPDK/starrc/nominal/saed32nm_1p9m_nominal.nxtgrd
**   TCAD_TIME_STAMP Wed Mar 16 14:34:54 2011
**   TCADGRD_VERSION 72


.SUBCKT bit8final vcc! gnd! SF0 S0 SF1 S1 SF2 S2 SF3 S3 SF4 S4 SF5 S5 SF6 S6 Cout SF7 S7 clk clkb Ci A0 B0 A1 B1 A2 B2 A3 B3 A4 B4 A5 B5 A6 B6 A7 B7

*|GROUND_NET gnd!

*LAYER_MAP

*0 SUBSTRATE
*1 psub
*2 nwnr
*3 pwell
*4 nsd
*5 psd
*6 ntap
*7 ptap
*8 psdr
*9 nsdr
*10 1_0V_BJT_BASE
*11 1_0V_BJT_COLL
*12 1_0V_BJT_EMIT
*13 1_0V_BJT_COLL_NPN
*14 1_0V_BJT_EMIT_NPN
*15 1_0V_BJT_BASE_NPN
*16 subtie_scon
*17 subtie
*18 pdores
*19 ndores
*20 ngate_105
*21 pgate_105
*22 ngate_25
*23 pgate_25
*24 ngate_18
*25 pgate_18
*26 ngate_105_lvt
*27 pgate_105_lvt
*28 ngate_105_hvt
*29 pgate_105_hvt
*30 ponr
*31 ppores
*32 npores
*33 ppores_sblk
*34 npores_sblk
*35 m1
*36 m1res
*37 m2
*38 m2res
*39 m3
*40 m3res
*41 m4
*42 m4res
*43 m5
*44 m5res
*45 m6
*46 m6res
*47 m7
*48 m7res
*49 m8
*50 m8res
*51 m9
*52 m9res
*53 mrdl
*54 pwell_cont
*55 nwell_cont
*56 codiff
*57 copoly
*58 via1
*59 via2
*60 via3
*61 via4
*62 via5
*63 via6
*64 via7
*65 via8
*66 viardl
*67 1_0V_BJT_BASE_cont_NPN
*68 1_0V_BJT_BASE_cont
*69 1_0V_BJT_COLL_cont
*70 1_0V_BJT_EMIT_cont
*71 1_0V_BJT_COLL_cont_NPN
*72 m1pin_marker
*73 m2pin_marker
*74 m3pin_marker
*75 m4pin_marker
*76 m5pin_marker
*77 m6pin_marker
*78 m7pin_marker
*79 m8pin_marker
*80 m9pin_marker


*|NET XI3|XI7|net17 0.000311712PF
*|I (F1581 XI3|XI7|MM4 SRC B 0 1.201 0.371) // $llx=1.201 $lly=0.371 $urx=1.201 $ury=0.371 $lvl=4
*|I (F1591 XI3|XI7|MM6 DRN B 0 1.687 0.371) // $llx=1.687 $lly=0.371 $urx=1.687 $ury=0.371 $lvl=4
*|S (1039 1.747 0.15) // $llx=1.717 $lly=0.125 $urx=1.778 $ury=0.176 $lvl=35
*|S (1267 1.139 0.15) // $llx=1.109 $lly=0.125 $urx=1.17 $ury=0.176 $lvl=35
*|S (1308 1.139 0.277) // $llx=1.109 $lly=0.256 $urx=1.17 $ury=0.298 $lvl=35
*|S (1310 1.139 0.371) // $llx=1.109 $lly=0.35 $urx=1.17 $ury=0.392 $lvl=35
*|S (1312 1.139 0.463) // $llx=1.109 $lly=0.442 $urx=1.17 $ury=0.484 $lvl=35
*|S (1291 1.139 0.506) // $llx=1.109 $lly=0.506 $urx=1.17 $ury=0.506 $lvl=35
*|S (2238 1.748 0.255) // $llx=1.707 $lly=0.234 $urx=1.789 $ury=0.276 $lvl=35
*|S (2182 1.748 0.231) // $llx=1.707 $lly=0.231 $urx=1.789 $ury=0.231 $lvl=35
*|S (9750 1.748 0.286) // $llx=1.707 $lly=0.286 $urx=1.789 $ury=0.286 $lvl=35
Cg45_1 1039 gnd! 5.28443e-18
Cg45_2 1267 gnd! 1.92573e-16
Cg45_3 F1581 gnd! 3.78725e-17
Cg45_4 F1591 gnd! 4.17762e-17
Cg45_5 2182 gnd! 3.42056e-17
R45_1 1039 1267 1.17059 $l=0.608 $w=0.051 $lvl=35
R45_2 1039 2182 0.131967 $l=0.081 $w=0.061 $lvl=35
R45_3 1267 1308 0.207377 $l=0.127 $w=0.061 $lvl=35
R45_4 1308 1310 0.154098 $l=0.094 $w=0.061 $lvl=35
R45_5 1308 F1581 150 $a=0.001764 $lvl=56
R45_6 1310 1312 0.15082 $l=0.092 $w=0.061 $lvl=35
R45_7 1310 F1581 150 $a=0.001764 $lvl=56
R45_8 1312 1291 0.0704918 $l=0.043 $w=0.061 $lvl=35
R45_9 1312 F1581 150 $a=0.001764 $lvl=56
R45_10 F1591 2238 150 $a=0.001764 $lvl=56
R45_11 2238 2182 0.0292683 $l=0.024 $w=0.082 $lvl=35
R45_12 2238 9750 0.0378049 $l=0.031 $w=0.082 $lvl=35

*|NET XI3|XI10|net17 0.000294162PF
*|I (F1597 XI3|XI10|MM4 SRC B 0 0.137 0.371) // $llx=0.137 $lly=0.371 $urx=0.137 $ury=0.371 $lvl=4
*|I (F1603 XI3|XI10|MM6 DRN B 0 0.623 0.371) // $llx=0.623 $lly=0.371 $urx=0.623 $ury=0.371 $lvl=4
*|S (9749 0.683 0.15) // $llx=0.653 $lly=0.125 $urx=0.714 $ury=0.176 $lvl=35
*|S (117 0.075 0.15) // $llx=0.045 $lly=0.125 $urx=0.106 $ury=0.176 $lvl=35
*|S (147 0.075 0.277) // $llx=0.045 $lly=0.256 $urx=0.106 $ury=0.298 $lvl=35
*|S (149 0.075 0.371) // $llx=0.045 $lly=0.35 $urx=0.106 $ury=0.392 $lvl=35
*|S (151 0.075 0.463) // $llx=0.045 $lly=0.442 $urx=0.106 $ury=0.484 $lvl=35
*|S (135 0.075 0.506) // $llx=0.045 $lly=0.506 $urx=0.106 $ury=0.506 $lvl=35
*|S (878 0.684 0.255) // $llx=0.643 $lly=0.234 $urx=0.725 $ury=0.276 $lvl=35
*|S (836 0.684 0.231) // $llx=0.643 $lly=0.231 $urx=0.725 $ury=0.231 $lvl=35
*|S (842 0.684 0.286) // $llx=0.643 $lly=0.286 $urx=0.725 $ury=0.286 $lvl=35
Cg40_6 9749 gnd! 5.80728e-18
Cg40_7 117 gnd! 1.71938e-16
Cg40_8 F1597 gnd! 3.65496e-17
Cg40_9 F1603 gnd! 4.53537e-17
Cg40_10 836 gnd! 3.4514e-17
R40_13 9749 117 1.17059 $l=0.608 $w=0.051 $lvl=35
R40_14 9749 836 0.131967 $l=0.081 $w=0.061 $lvl=35
R40_15 117 147 0.207377 $l=0.127 $w=0.061 $lvl=35
R40_16 147 149 0.154098 $l=0.094 $w=0.061 $lvl=35
R40_17 147 F1597 150 $a=0.001764 $lvl=56
R40_18 149 151 0.15082 $l=0.092 $w=0.061 $lvl=35
R40_19 149 F1597 150 $a=0.001764 $lvl=56
R40_20 151 135 0.0704918 $l=0.043 $w=0.061 $lvl=35
R40_21 151 F1597 150 $a=0.001764 $lvl=56
R40_22 F1603 878 150 $a=0.001764 $lvl=56
R40_23 878 836 0.0292683 $l=0.024 $w=0.082 $lvl=35
R40_24 878 842 0.0378049 $l=0.031 $w=0.082 $lvl=35

*|NET XI3|XI9|net18 0.000181952PF
*|I (F2583 XI3|XI9|MM3 SRC B 0 2.295 1.12) // $llx=2.295 $lly=1.12 $urx=2.295 $ury=1.12 $lvl=5
*|I (F2561 XI3|XI9|MM1 DRN B 0 2.569 1.12) // $llx=2.569 $lly=1.12 $urx=2.569 $ury=1.12 $lvl=5
*|S (3182 2.509 1.127) // $llx=2.479 $lly=1.098 $urx=2.54 $ury=1.156 $lvl=35
*|S (3184 2.509 1.211) // $llx=2.479 $lly=1.19 $urx=2.54 $ury=1.232 $lvl=35
*|S (3159 2.509 1.263) // $llx=2.479 $lly=1.263 $urx=2.54 $ury=1.263 $lvl=35
*|S (2958 2.356 1.138) // $llx=2.326 $lly=1.105 $urx=2.387 $ury=1.172 $lvl=35
*|S (3028 2.356 1.24) // $llx=2.326 $lly=1.24 $urx=2.387 $ury=1.24 $lvl=35
*|S (3180 2.509 1.025) // $llx=2.479 $lly=1.004 $urx=2.54 $ury=1.046 $lvl=35
*|S (3158 2.509 0.968) // $llx=2.479 $lly=0.968 $urx=2.54 $ury=0.968 $lvl=35
Cg65_11 3159 gnd! 2.15993e-17
Cg65_12 2958 gnd! 3.90011e-17
Cg65_13 F2583 gnd! 4.56225e-17
Cg65_14 F2561 gnd! 4.23103e-17
Cg65_15 3158 gnd! 3.34184e-17
R65_25 3182 3184 0.137705 $l=0.084 $w=0.061 $lvl=35
R65_26 3182 2958 0.279412 $l=0.153 $w=0.051 $lvl=35
R65_27 3182 F2561 150 $a=0.001764 $lvl=56
R65_28 3182 3180 0.157377 $l=0.102 $w=0.061 $lvl=35
R65_29 3184 3159 0.0852459 $l=0.052 $w=0.061 $lvl=35
R65_30 3184 F2561 150 $a=0.001764 $lvl=56
R65_31 2958 3028 0.161475 $l=0.102 $w=0.061 $lvl=35
R65_32 2958 F2583 150 $a=0.001764 $lvl=56
R65_33 F2561 3180 150 $a=0.001764 $lvl=56
R65_34 3180 3158 0.0934426 $l=0.057 $w=0.061 $lvl=35

*|NET XI3|XI7|net16 0.000187991PF
*|I (F2633 XI3|XI7|MM5 DRN B 0 1.687 1.12) // $llx=1.687 $lly=1.12 $urx=1.687 $ury=1.12 $lvl=5
*|I (F2577 XI3|XI7|MM7 SRC B 0 1.961 1.12) // $llx=1.961 $lly=1.12 $urx=1.961 $ury=1.12 $lvl=5
*|S (2192 1.747 1.117) // $llx=1.717 $lly=1.092 $urx=1.778 $ury=1.143 $lvl=35
*|S (2244 1.747 1.211) // $llx=1.717 $lly=1.19 $urx=1.778 $ury=1.232 $lvl=35
*|S (2193 1.747 1.263) // $llx=1.717 $lly=1.263 $urx=1.778 $ury=1.263 $lvl=35
*|S (2358 1.9 1.117) // $llx=1.87 $lly=1.092 $urx=1.931 $ury=1.143 $lvl=35
*|S (2380 1.9 1.211) // $llx=1.87 $lly=1.19 $urx=1.931 $ury=1.232 $lvl=35
*|S (2359 1.9 1.263) // $llx=1.87 $lly=1.263 $urx=1.931 $ury=1.263 $lvl=35
*|S (2240 1.747 1.025) // $llx=1.717 $lly=1.004 $urx=1.778 $ury=1.046 $lvl=35
*|S (2376 1.9 1.025) // $llx=1.87 $lly=1.004 $urx=1.931 $ury=1.046 $lvl=35
*|S (703 1.9 0.968) // $llx=1.87 $lly=0.968 $urx=1.931 $ury=0.968 $lvl=35
*|S (607 1.747 0.968) // $llx=1.717 $lly=0.968 $urx=1.778 $ury=0.968 $lvl=35
Cg67_16 2192 gnd! 3.63545e-17
Cg67_17 2193 gnd! 2.1178e-17
Cg67_18 2358 gnd! 2.9057e-17
Cg67_19 2359 gnd! 2.09638e-17
Cg67_20 F2633 gnd! 3.87588e-17
Cg67_21 F2577 gnd! 4.16789e-17
R67_35 2192 2244 0.153279 $l=0.094 $w=0.061 $lvl=35
R67_36 2192 2358 0.280392 $l=0.153 $w=0.051 $lvl=35
R67_37 2192 F2633 150 $a=0.001764 $lvl=56
R67_38 2192 2240 0.140984 $l=0.092 $w=0.061 $lvl=35
R67_39 2244 2193 0.0852459 $l=0.052 $w=0.061 $lvl=35
R67_40 2244 F2633 150 $a=0.001764 $lvl=56
R67_41 2358 2380 0.153279 $l=0.094 $w=0.061 $lvl=35
R67_42 2358 F2577 150 $a=0.001764 $lvl=56
R67_43 2358 2376 0.140984 $l=0.092 $w=0.061 $lvl=35
R67_44 2380 2359 0.0852459 $l=0.052 $w=0.061 $lvl=35
R67_45 2380 F2577 150 $a=0.001764 $lvl=56
R67_46 F2633 2240 150 $a=0.001764 $lvl=56
R67_47 F2577 2376 150 $a=0.001764 $lvl=56
R67_48 2240 607 0.0934426 $l=0.057 $w=0.061 $lvl=35
R67_49 2376 703 0.0934426 $l=0.057 $w=0.061 $lvl=35

*|NET XI3|XI7|net18 0.000177649PF
*|I (F2627 XI3|XI7|MM3 SRC B 0 1.231 1.12) // $llx=1.231 $lly=1.12 $urx=1.231 $ury=1.12 $lvl=5
*|I (F2629 XI3|XI7|MM1 DRN B 0 1.505 1.12) // $llx=1.505 $lly=1.12 $urx=1.505 $ury=1.12 $lvl=5
*|S (1734 1.445 1.127) // $llx=1.415 $lly=1.098 $urx=1.476 $ury=1.156 $lvl=35
*|S (1736 1.445 1.211) // $llx=1.415 $lly=1.19 $urx=1.476 $ury=1.232 $lvl=35
*|S (1711 1.445 1.263) // $llx=1.415 $lly=1.263 $urx=1.476 $ury=1.263 $lvl=35
*|S (1514 1.292 1.138) // $llx=1.262 $lly=1.105 $urx=1.323 $ury=1.172 $lvl=35
*|S (1584 1.292 1.243) // $llx=1.262 $lly=1.243 $urx=1.323 $ury=1.243 $lvl=35
*|S (1732 1.445 1.025) // $llx=1.415 $lly=1.004 $urx=1.476 $ury=1.046 $lvl=35
*|S (1710 1.445 0.968) // $llx=1.415 $lly=0.968 $urx=1.476 $ury=0.968 $lvl=35
Cg62_22 1711 gnd! 2.1441e-17
Cg62_23 1514 gnd! 3.93708e-17
Cg62_24 F2627 gnd! 4.26335e-17
Cg62_25 F2629 gnd! 4.10589e-17
Cg62_26 1710 gnd! 3.31446e-17
R62_50 1734 1736 0.137705 $l=0.084 $w=0.061 $lvl=35
R62_51 1734 1514 0.279412 $l=0.153 $w=0.051 $lvl=35
R62_52 1734 F2629 150 $a=0.001764 $lvl=56
R62_53 1734 1732 0.157377 $l=0.102 $w=0.061 $lvl=35
R62_54 1736 1711 0.0852459 $l=0.052 $w=0.061 $lvl=35
R62_55 1736 F2629 150 $a=0.001764 $lvl=56
R62_56 1514 1584 0.166393 $l=0.105 $w=0.061 $lvl=35
R62_57 1514 F2627 150 $a=0.001764 $lvl=56
R62_58 F2629 1732 150 $a=0.001764 $lvl=56
R62_59 1732 1710 0.0934426 $l=0.057 $w=0.061 $lvl=35

*|NET XI3|XI10|net16 0.000193592PF
*|I (F2659 XI3|XI10|MM5 DRN B 0 0.623 1.12) // $llx=0.623 $lly=1.12 $urx=0.623 $ury=1.12 $lvl=5
*|I (F2637 XI3|XI10|MM7 SRC B 0 0.897 1.12) // $llx=0.897 $lly=1.12 $urx=0.897 $ury=1.12 $lvl=5
*|S (844 0.683 1.117) // $llx=0.653 $lly=1.092 $urx=0.714 $ury=1.143 $lvl=35
*|S (884 0.683 1.211) // $llx=0.653 $lly=1.19 $urx=0.714 $ury=1.232 $lvl=35
*|S (845 0.683 1.263) // $llx=0.653 $lly=1.263 $urx=0.714 $ury=1.263 $lvl=35
*|S (968 0.836 1.117) // $llx=0.806 $lly=1.092 $urx=0.867 $ury=1.143 $lvl=35
*|S (986 0.836 1.211) // $llx=0.806 $lly=1.19 $urx=0.867 $ury=1.232 $lvl=35
*|S (969 0.836 1.263) // $llx=0.806 $lly=1.263 $urx=0.867 $ury=1.263 $lvl=35
*|S (880 0.683 1.025) // $llx=0.653 $lly=1.004 $urx=0.714 $ury=1.046 $lvl=35
*|S (982 0.836 1.025) // $llx=0.806 $lly=1.004 $urx=0.867 $ury=1.046 $lvl=35
*|S (879 0.836 0.968) // $llx=0.806 $lly=0.968 $urx=0.867 $ury=0.968 $lvl=35
*|S (812 0.683 0.968) // $llx=0.653 $lly=0.968 $urx=0.714 $ury=0.968 $lvl=35
Cg60_27 844 gnd! 3.67315e-17
Cg60_28 845 gnd! 2.09136e-17
Cg60_29 968 gnd! 3.00052e-17
Cg60_30 969 gnd! 2.09556e-17
Cg60_31 F2659 gnd! 4.16534e-17
Cg60_32 F2637 gnd! 4.33324e-17
R60_60 844 884 0.153279 $l=0.094 $w=0.061 $lvl=35
R60_61 844 968 0.280392 $l=0.153 $w=0.051 $lvl=35
R60_62 844 F2659 150 $a=0.001764 $lvl=56
R60_63 844 880 0.140984 $l=0.092 $w=0.061 $lvl=35
R60_64 884 845 0.0852459 $l=0.052 $w=0.061 $lvl=35
R60_65 884 F2659 150 $a=0.001764 $lvl=56
R60_66 968 986 0.153279 $l=0.094 $w=0.061 $lvl=35
R60_67 968 F2637 150 $a=0.001764 $lvl=56
R60_68 968 982 0.140984 $l=0.092 $w=0.061 $lvl=35
R60_69 986 969 0.0852459 $l=0.052 $w=0.061 $lvl=35
R60_70 986 F2637 150 $a=0.001764 $lvl=56
R60_71 F2659 880 150 $a=0.001764 $lvl=56
R60_72 F2637 982 150 $a=0.001764 $lvl=56
R60_73 880 812 0.0934426 $l=0.057 $w=0.061 $lvl=35
R60_74 982 879 0.0934426 $l=0.057 $w=0.061 $lvl=35

*|NET XI3|XI10|net18 0.0001791PF
*|I (F2655 XI3|XI10|MM3 SRC B 0 0.167 1.12) // $llx=0.167 $lly=1.12 $urx=0.167 $ury=1.12 $lvl=5
*|I (F2661 XI3|XI10|MM1 DRN B 0 0.441 1.12) // $llx=0.441 $lly=1.12 $urx=0.441 $ury=1.12 $lvl=5
*|S (496 0.381 1.127) // $llx=0.351 $lly=1.098 $urx=0.412 $ury=1.156 $lvl=35
*|S (498 0.381 1.211) // $llx=0.351 $lly=1.19 $urx=0.412 $ury=1.232 $lvl=35
*|S (473 0.381 1.263) // $llx=0.351 $lly=1.263 $urx=0.412 $ury=1.263 $lvl=35
*|S (308 0.228 1.138) // $llx=0.198 $lly=1.105 $urx=0.259 $ury=1.172 $lvl=35
*|S (362 0.228 1.224) // $llx=0.198 $lly=1.224 $urx=0.259 $ury=1.224 $lvl=35
*|S (494 0.381 1.025) // $llx=0.351 $lly=1.004 $urx=0.412 $ury=1.046 $lvl=35
*|S (472 0.381 0.968) // $llx=0.351 $lly=0.968 $urx=0.412 $ury=0.968 $lvl=35
Cg61_33 473 gnd! 2.22348e-17
Cg61_34 308 gnd! 3.67674e-17
Cg61_35 F2655 gnd! 4.45183e-17
Cg61_36 F2661 gnd! 4.10089e-17
Cg61_37 472 gnd! 3.45703e-17
R61_75 496 498 0.137705 $l=0.084 $w=0.061 $lvl=35
R61_76 496 308 0.279412 $l=0.153 $w=0.051 $lvl=35
R61_77 496 F2661 150 $a=0.001764 $lvl=56
R61_78 496 494 0.157377 $l=0.102 $w=0.061 $lvl=35
R61_79 498 473 0.0852459 $l=0.052 $w=0.061 $lvl=35
R61_80 498 F2661 150 $a=0.001764 $lvl=56
R61_81 308 362 0.135246 $l=0.086 $w=0.061 $lvl=35
R61_82 308 F2655 150 $a=0.001764 $lvl=56
R61_83 F2661 494 150 $a=0.001764 $lvl=56
R61_84 494 472 0.0934426 $l=0.057 $w=0.061 $lvl=35

*|NET ln_N_2141 0.000212095PF
*|S (363 2.432 1.47) // $llx=2.417 $lly=1.47 $urx=2.447 $ury=1.47 $lvl=30
*|S (3086 2.432 0.05) // $llx=2.417 $lly=0.05 $urx=2.447 $ury=0.05 $lvl=30
Cg324_38 3086 gnd! 2.12095e-16
R324_85 363 3086 710 $l=1.42 $w=0.03 $lvl=30

*|NET ln_N_2139 0.000210297PF
*|S (499 2.128 1.47) // $llx=2.113 $lly=1.47 $urx=2.143 $ury=1.47 $lvl=30
*|S (2670 2.128 0.05) // $llx=2.113 $lly=0.05 $urx=2.143 $ury=0.05 $lvl=30
Cg322_39 2670 gnd! 2.10298e-16
R322_86 499 2670 710 $l=1.42 $w=0.03 $lvl=30

*|NET ln_N_2138 0.000209945PF
*|S (709 1.824 1.47) // $llx=1.809 $lly=1.47 $urx=1.839 $ury=1.47 $lvl=30
*|S (2302 1.824 0.05) // $llx=1.809 $lly=0.05 $urx=1.839 $ury=0.05 $lvl=30
Cg321_40 2302 gnd! 2.09945e-16
R321_87 709 2302 710 $l=1.42 $w=0.03 $lvl=30

*|NET ln_N_2136 0.000209047PF
*|S (814 1.368 1.47) // $llx=1.353 $lly=1.47 $urx=1.383 $ury=1.47 $lvl=30
*|S (1642 1.368 0.05) // $llx=1.353 $lly=0.05 $urx=1.383 $ury=0.05 $lvl=30
Cg319_41 1642 gnd! 2.09047e-16
R319_88 814 1642 710 $l=1.42 $w=0.03 $lvl=30

*|NET ln_N_2137 0.000209203PF
*|S (940 1.064 1.47) // $llx=1.049 $lly=1.47 $urx=1.079 $ury=1.47 $lvl=30
*|S (1218 1.064 0.05) // $llx=1.049 $lly=0.05 $urx=1.079 $ury=0.05 $lvl=30
Cg320_42 1218 gnd! 2.09203e-16
R320_89 940 1218 710 $l=1.42 $w=0.03 $lvl=30

*|NET ln_N_2135 0.000210956PF
*|S (1100 0.76 1.47) // $llx=0.745 $lly=1.47 $urx=0.775 $ury=1.47 $lvl=30
*|S (926 0.76 0.05) // $llx=0.745 $lly=0.05 $urx=0.775 $ury=0.05 $lvl=30
Cg318_43 926 gnd! 2.10956e-16
R318_90 1100 926 710 $l=1.42 $w=0.03 $lvl=30

*|NET ln_N_2133 0.000207203PF
*|S (1585 0.304 1.47) // $llx=0.289 $lly=1.47 $urx=0.319 $ury=1.47 $lvl=30
*|S (413 0.304 0.05) // $llx=0.289 $lly=0.05 $urx=0.319 $ury=0.05 $lvl=30
Cg316_44 413 gnd! 2.07203e-16
R316_91 1585 413 710 $l=1.42 $w=0.03 $lvl=30

*|NET ln_N_2134 0.000176527PF
*|S (1737 0 1.47) // $llx=-0.015 $lly=1.47 $urx=0.015 $ury=1.47 $lvl=30
*|S (63 0 0.05) // $llx=-0.015 $lly=0.05 $urx=0.015 $ury=0.05 $lvl=30
Cg317_45 63 gnd! 1.76527e-16
R317_92 1737 63 710 $l=1.42 $w=0.03 $lvl=30

*|NET XI3|XI12|net18 0.000181638PF
*|I (F2575 XI3|XI12|MM3 SRC B 0 2.295 1.92) // $llx=2.295 $lly=1.92 $urx=2.295 $ury=1.92 $lvl=5
*|I (F2553 XI3|XI12|MM1 DRN B 0 2.569 1.92) // $llx=2.569 $lly=1.92 $urx=2.569 $ury=1.92 $lvl=5
*|S (3188 2.509 1.913) // $llx=2.479 $lly=1.884 $urx=2.54 $ury=1.942 $lvl=35
*|S (3190 2.509 2.015) // $llx=2.479 $lly=1.994 $urx=2.54 $ury=2.036 $lvl=35
*|S (3161 2.509 2.072) // $llx=2.479 $lly=2.072 $urx=2.54 $ury=2.072 $lvl=35
*|S (3030 2.356 1.901) // $llx=2.326 $lly=1.868 $urx=2.387 $ury=1.935 $lvl=35
*|S (2959 2.356 1.816) // $llx=2.326 $lly=1.816 $urx=2.387 $ury=1.816 $lvl=35
*|S (3186 2.509 1.829) // $llx=2.479 $lly=1.808 $urx=2.54 $ury=1.85 $lvl=35
*|S (2245 2.509 1.777) // $llx=2.479 $lly=1.777 $urx=2.54 $ury=1.777 $lvl=35
Cg84_46 3188 gnd! 2.52934e-17
Cg84_47 3161 gnd! 3.09648e-17
Cg84_48 3030 gnd! 1.46147e-17
Cg84_49 2959 gnd! 2.31343e-17
Cg84_50 F2575 gnd! 4.52119e-17
Cg84_51 F2553 gnd! 4.24189e-17
R84_93 3188 3190 0.167213 $l=0.102 $w=0.061 $lvl=35
R84_94 3188 3030 0.280392 $l=0.153 $w=0.051 $lvl=35
R84_95 3188 F2553 150 $a=0.001764 $lvl=56
R84_96 3188 3186 0.134426 $l=0.084 $w=0.061 $lvl=35
R84_97 3190 3161 0.0934426 $l=0.057 $w=0.061 $lvl=35
R84_98 3190 F2553 150 $a=0.001764 $lvl=56
R84_99 3030 2959 0.12623 $l=0.085 $w=0.061 $lvl=35
R84_100 3030 F2575 150 $a=0.001764 $lvl=56
R84_101 F2553 3186 150 $a=0.001764 $lvl=56
R84_102 3186 2245 0.0852459 $l=0.052 $w=0.061 $lvl=35

*|NET XI3|XI11|net16 0.000188311PF
*|I (F2621 XI3|XI11|MM5 DRN B 0 1.687 1.92) // $llx=1.687 $lly=1.92 $urx=1.687 $ury=1.92 $lvl=5
*|I (F2569 XI3|XI11|MM7 SRC B 0 1.961 1.92) // $llx=1.961 $lly=1.92 $urx=1.961 $ury=1.92 $lvl=5
*|S (2194 1.747 1.922) // $llx=1.717 $lly=1.897 $urx=1.778 $ury=1.948 $lvl=35
*|S (2250 1.747 2.015) // $llx=1.717 $lly=1.994 $urx=1.778 $ury=2.036 $lvl=35
*|S (2195 1.747 2.072) // $llx=1.717 $lly=2.072 $urx=1.778 $ury=2.072 $lvl=35
*|S (2360 1.9 1.922) // $llx=1.87 $lly=1.897 $urx=1.931 $ury=1.948 $lvl=35
*|S (2386 1.9 2.015) // $llx=1.87 $lly=1.994 $urx=1.931 $ury=2.036 $lvl=35
*|S (2361 1.9 2.072) // $llx=1.87 $lly=2.072 $urx=1.931 $ury=2.072 $lvl=35
*|S (2246 1.747 1.829) // $llx=1.717 $lly=1.808 $urx=1.778 $ury=1.85 $lvl=35
*|S (2382 1.9 1.829) // $llx=1.87 $lly=1.808 $urx=1.931 $ury=1.85 $lvl=35
*|S (2381 1.9 1.777) // $llx=1.87 $lly=1.777 $urx=1.931 $ury=1.777 $lvl=35
*|S (2320 1.747 1.777) // $llx=1.717 $lly=1.777 $urx=1.778 $ury=1.777 $lvl=35
Cg87_52 2194 gnd! 3.07109e-17
Cg87_53 2195 gnd! 2.71963e-17
Cg87_54 2360 gnd! 2.39052e-17
Cg87_55 2361 gnd! 2.62601e-17
Cg87_56 F2621 gnd! 4.05334e-17
Cg87_57 F2569 gnd! 3.97053e-17
R87_103 2194 2250 0.151639 $l=0.093 $w=0.061 $lvl=35
R87_104 2194 2360 0.280392 $l=0.153 $w=0.051 $lvl=35
R87_105 2194 F2621 150 $a=0.001764 $lvl=56
R87_106 2194 2246 0.137705 $l=0.093 $w=0.061 $lvl=35
R87_107 2250 2195 0.0934426 $l=0.057 $w=0.061 $lvl=35
R87_108 2250 F2621 150 $a=0.001764 $lvl=56
R87_109 2360 2386 0.151639 $l=0.093 $w=0.061 $lvl=35
R87_110 2360 F2569 150 $a=0.001764 $lvl=56
R87_111 2360 2382 0.137705 $l=0.093 $w=0.061 $lvl=35
R87_112 2386 2361 0.0934426 $l=0.057 $w=0.061 $lvl=35
R87_113 2386 F2569 150 $a=0.001764 $lvl=56
R87_114 F2621 2246 150 $a=0.001764 $lvl=56
R87_115 F2569 2382 150 $a=0.001764 $lvl=56
R87_116 2246 2320 0.0852459 $l=0.052 $w=0.061 $lvl=35
R87_117 2382 2381 0.0852459 $l=0.052 $w=0.061 $lvl=35

*|NET XI3|XI11|net18 0.00018189PF
*|I (F2615 XI3|XI11|MM3 SRC B 0 1.231 1.92) // $llx=1.231 $lly=1.92 $urx=1.231 $ury=1.92 $lvl=5
*|I (F2617 XI3|XI11|MM1 DRN B 0 1.505 1.92) // $llx=1.505 $lly=1.92 $urx=1.505 $ury=1.92 $lvl=5
*|S (1740 1.445 1.913) // $llx=1.415 $lly=1.884 $urx=1.476 $ury=1.942 $lvl=35
*|S (1742 1.445 2.015) // $llx=1.415 $lly=1.994 $urx=1.476 $ury=2.036 $lvl=35
*|S (1713 1.445 2.072) // $llx=1.415 $lly=2.072 $urx=1.476 $ury=2.072 $lvl=35
*|S (1586 1.292 1.901) // $llx=1.262 $lly=1.868 $urx=1.323 $ury=1.935 $lvl=35
*|S (1515 1.292 1.817) // $llx=1.262 $lly=1.817 $urx=1.323 $ury=1.817 $lvl=35
*|S (1738 1.445 1.829) // $llx=1.415 $lly=1.808 $urx=1.476 $ury=1.85 $lvl=35
*|S (2152 1.445 1.777) // $llx=1.415 $lly=1.777 $urx=1.476 $ury=1.777 $lvl=35
Cg81_58 1740 gnd! 2.48871e-17
Cg81_59 1713 gnd! 3.07676e-17
Cg81_60 1586 gnd! 1.94806e-17
Cg81_61 1515 gnd! 1.89392e-17
Cg81_62 F2615 gnd! 4.45323e-17
Cg81_63 F2617 gnd! 4.32831e-17
R81_118 1740 1742 0.167213 $l=0.102 $w=0.061 $lvl=35
R81_119 1740 1586 0.280392 $l=0.153 $w=0.051 $lvl=35
R81_120 1740 F2617 150 $a=0.001764 $lvl=56
R81_121 1740 1738 0.134426 $l=0.084 $w=0.061 $lvl=35
R81_122 1742 1713 0.0934426 $l=0.057 $w=0.061 $lvl=35
R81_123 1742 F2617 150 $a=0.001764 $lvl=56
R81_124 1586 1515 0.12459 $l=0.084 $w=0.061 $lvl=35
R81_125 1586 F2615 150 $a=0.001764 $lvl=56
R81_126 F2617 1738 150 $a=0.001764 $lvl=56
R81_127 1738 2152 0.0852459 $l=0.052 $w=0.061 $lvl=35

*|NET XI3|XI11|net17 0.000283676PF
*|I (F1401 XI3|XI11|MM4 SRC B 0 1.201 2.669) // $llx=1.201 $lly=2.669 $urx=1.201 $ury=2.669 $lvl=4
*|I (F1411 XI3|XI11|MM6 DRN B 0 1.687 2.669) // $llx=1.687 $lly=2.669 $urx=1.687 $ury=2.669 $lvl=4
*|S (2183 1.748 2.809) // $llx=1.707 $lly=2.809 $urx=1.789 $ury=2.809 $lvl=35
*|S (2197 1.747 2.889) // $llx=1.717 $lly=2.864 $urx=1.778 $ury=2.915 $lvl=35
*|S (1272 1.139 2.889) // $llx=1.109 $lly=2.864 $urx=1.17 $ury=2.915 $lvl=35
*|S (2252 1.748 2.785) // $llx=1.707 $lly=2.764 $urx=1.789 $ury=2.806 $lvl=35
*|S (1241 1.139 2.534) // $llx=1.109 $lly=2.534 $urx=1.17 $ury=2.534 $lvl=35
*|S (1322 1.139 2.577) // $llx=1.109 $lly=2.556 $urx=1.17 $ury=2.598 $lvl=35
*|S (1324 1.139 2.669) // $llx=1.109 $lly=2.648 $urx=1.17 $ury=2.69 $lvl=35
*|S (1326 1.139 2.763) // $llx=1.109 $lly=2.742 $urx=1.17 $ury=2.784 $lvl=35
*|S (1947 1.748 2.754) // $llx=1.707 $lly=2.754 $urx=1.789 $ury=2.754 $lvl=35
Cg97_64 2183 gnd! 3.42178e-17
Cg97_65 2197 gnd! 7.04541e-18
Cg97_66 1272 gnd! 1.64646e-16
Cg97_67 F1401 gnd! 3.56072e-17
Cg97_68 F1411 gnd! 4.21587e-17
R97_128 2183 2197 0.122951 $l=0.08 $w=0.061 $lvl=35
R97_129 2183 2252 0.0292683 $l=0.024 $w=0.082 $lvl=35
R97_130 2197 1272 1.17255 $l=0.608 $w=0.051 $lvl=35
R97_131 1272 1326 0.198361 $l=0.126 $w=0.061 $lvl=35
R97_132 2252 1947 0.0378049 $l=0.031 $w=0.082 $lvl=35
R97_133 2252 F1411 150 $a=0.001764 $lvl=56
R97_134 1241 1322 0.0704918 $l=0.043 $w=0.061 $lvl=35
R97_135 1322 1324 0.15082 $l=0.092 $w=0.061 $lvl=35
R97_136 1322 F1401 150 $a=0.001764 $lvl=56
R97_137 1324 1326 0.154098 $l=0.094 $w=0.061 $lvl=35
R97_138 1324 F1401 150 $a=0.001764 $lvl=56
R97_139 1326 F1401 150 $a=0.001764 $lvl=56

*|NET ln_N_2207 0.000211459PF
*|S (1452 2.432 2.99) // $llx=2.417 $lly=2.99 $urx=2.447 $ury=2.99 $lvl=30
*|S (3087 2.432 1.57) // $llx=2.417 $lly=1.57 $urx=2.447 $ury=1.57 $lvl=30
Cg390_69 3087 gnd! 2.11459e-16
R390_140 1452 3087 710 $l=1.42 $w=0.03 $lvl=30

*|NET ln_N_2193 0.000210385PF
*|S (1672 2.128 2.99) // $llx=2.113 $lly=2.99 $urx=2.143 $ury=2.99 $lvl=30
*|S (2671 2.128 1.57) // $llx=2.113 $lly=1.57 $urx=2.143 $ury=1.57 $lvl=30
Cg376_70 2671 gnd! 2.10385e-16
R376_141 1672 2671 710 $l=1.42 $w=0.03 $lvl=30

*|NET ln_N_2186 0.000209696PF
*|S (1886 1.824 2.99) // $llx=1.809 $lly=2.99 $urx=1.839 $ury=2.99 $lvl=30
*|S (2303 1.824 1.57) // $llx=1.809 $lly=1.57 $urx=1.839 $ury=1.57 $lvl=30
Cg369_71 2303 gnd! 2.09696e-16
R369_142 1886 2303 710 $l=1.42 $w=0.03 $lvl=30

*|NET ln_N_2178 0.000210017PF
*|S (2389 1.368 2.99) // $llx=1.353 $lly=2.99 $urx=1.383 $ury=2.99 $lvl=30
*|S (1643 1.368 1.57) // $llx=1.353 $lly=1.57 $urx=1.383 $ury=1.57 $lvl=30
Cg361_72 1643 gnd! 2.10017e-16
R361_143 2389 1643 710 $l=1.42 $w=0.03 $lvl=30

*|NET ln_N_2179 0.000180869PF
*|S (2609 1.064 2.99) // $llx=1.049 $lly=2.99 $urx=1.079 $ury=2.99 $lvl=30
*|S (1219 1.064 1.57) // $llx=1.049 $lly=1.57 $urx=1.079 $ury=1.57 $lvl=30
Cg362_73 1219 gnd! 1.80869e-16
R362_144 2609 1219 710 $l=1.42 $w=0.03 $lvl=30

*|NET XI3|XI14|net17 0.000281855PF
*|I (F1397 XI3|XI14|MM4 SRC B 0 1.201 3.411) // $llx=1.201 $lly=3.411 $urx=1.201 $ury=3.411 $lvl=4
*|I (F1391 XI3|XI14|MM6 DRN B 0 1.687 3.411) // $llx=1.687 $lly=3.411 $urx=1.687 $ury=3.411 $lvl=4
*|S (2692 1.747 3.19) // $llx=1.717 $lly=3.165 $urx=1.778 $ury=3.216 $lvl=35
*|S (1273 1.139 3.19) // $llx=1.109 $lly=3.165 $urx=1.17 $ury=3.216 $lvl=35
*|S (1328 1.139 3.317) // $llx=1.109 $lly=3.296 $urx=1.17 $ury=3.338 $lvl=35
*|S (1330 1.139 3.411) // $llx=1.109 $lly=3.39 $urx=1.17 $ury=3.432 $lvl=35
*|S (1332 1.139 3.503) // $llx=1.109 $lly=3.482 $urx=1.17 $ury=3.524 $lvl=35
*|S (1293 1.139 3.546) // $llx=1.109 $lly=3.546 $urx=1.17 $ury=3.546 $lvl=35
*|S (2254 1.748 3.295) // $llx=1.707 $lly=3.274 $urx=1.789 $ury=3.316 $lvl=35
*|S (2184 1.748 3.271) // $llx=1.707 $lly=3.271 $urx=1.789 $ury=3.271 $lvl=35
*|S (3037 1.748 3.326) // $llx=1.707 $lly=3.326 $urx=1.789 $ury=3.326 $lvl=35
Cg106_74 2692 gnd! 6.4772e-18
Cg106_75 1273 gnd! 1.66753e-16
Cg106_76 F1397 gnd! 3.53217e-17
Cg106_77 F1391 gnd! 3.91468e-17
Cg106_78 2184 gnd! 3.41566e-17
R106_145 2692 1273 1.17059 $l=0.608 $w=0.051 $lvl=35
R106_146 2692 2184 0.131967 $l=0.081 $w=0.061 $lvl=35
R106_147 1273 1328 0.207377 $l=0.127 $w=0.061 $lvl=35
R106_148 1328 1330 0.154098 $l=0.094 $w=0.061 $lvl=35
R106_149 1328 F1397 150 $a=0.001764 $lvl=56
R106_150 1330 1332 0.15082 $l=0.092 $w=0.061 $lvl=35
R106_151 1330 F1397 150 $a=0.001764 $lvl=56
R106_152 1332 1293 0.0704918 $l=0.043 $w=0.061 $lvl=35
R106_153 1332 F1397 150 $a=0.001764 $lvl=56
R106_154 F1391 2254 150 $a=0.001764 $lvl=56
R106_155 2254 2184 0.0292683 $l=0.024 $w=0.082 $lvl=35
R106_156 2254 3037 0.0378049 $l=0.031 $w=0.082 $lvl=35

*|NET XI3|XI15|net18 0.000184723PF
*|I (F2539 XI3|XI15|MM3 SRC B 0 2.295 4.16) // $llx=2.295 $lly=4.16 $urx=2.295 $ury=4.16 $lvl=5
*|I (F2533 XI3|XI15|MM1 DRN B 0 2.569 4.16) // $llx=2.569 $lly=4.16 $urx=2.569 $ury=4.16 $lvl=5
*|S (3206 2.509 4.167) // $llx=2.479 $lly=4.138 $urx=2.54 $ury=4.196 $lvl=35
*|S (3208 2.509 4.251) // $llx=2.479 $lly=4.23 $urx=2.54 $ury=4.272 $lvl=35
*|S (3163 2.509 4.303) // $llx=2.479 $lly=4.303 $urx=2.54 $ury=4.303 $lvl=35
*|S (2960 2.356 4.178) // $llx=2.326 $lly=4.145 $urx=2.387 $ury=4.212 $lvl=35
*|S (3044 2.356 4.292) // $llx=2.326 $lly=4.292 $urx=2.387 $ury=4.292 $lvl=35
*|S (3204 2.509 4.065) // $llx=2.479 $lly=4.044 $urx=2.54 $ury=4.086 $lvl=35
*|S (3162 2.509 4.008) // $llx=2.479 $lly=4.008 $urx=2.54 $ury=4.008 $lvl=35
Cg128_79 3163 gnd! 2.18411e-17
Cg128_80 2960 gnd! 4.14324e-17
Cg128_81 F2539 gnd! 4.54718e-17
Cg128_82 F2533 gnd! 4.20324e-17
Cg128_83 3162 gnd! 3.39454e-17
R128_157 3206 3208 0.137705 $l=0.084 $w=0.061 $lvl=35
R128_158 3206 2960 0.279412 $l=0.153 $w=0.051 $lvl=35
R128_159 3206 F2533 150 $a=0.001764 $lvl=56
R128_160 3206 3204 0.157377 $l=0.102 $w=0.061 $lvl=35
R128_161 3208 3163 0.0852459 $l=0.052 $w=0.061 $lvl=35
R128_162 3208 F2533 150 $a=0.001764 $lvl=56
R128_163 2960 3044 0.181148 $l=0.114 $w=0.061 $lvl=35
R128_164 2960 F2539 150 $a=0.001764 $lvl=56
R128_165 F2533 3204 150 $a=0.001764 $lvl=56
R128_166 3204 3162 0.0934426 $l=0.057 $w=0.061 $lvl=35

*|NET XI3|XI14|net16 0.000187001PF
*|I (F2601 XI3|XI14|MM5 DRN B 0 1.687 4.16) // $llx=1.687 $lly=4.16 $urx=1.687 $ury=4.16 $lvl=5
*|I (F2545 XI3|XI14|MM7 SRC B 0 1.961 4.16) // $llx=1.961 $lly=4.16 $urx=1.961 $ury=4.16 $lvl=5
*|S (2200 1.747 4.157) // $llx=1.717 $lly=4.132 $urx=1.778 $ury=4.183 $lvl=35
*|S (2260 1.747 4.251) // $llx=1.717 $lly=4.23 $urx=1.778 $ury=4.272 $lvl=35
*|S (2201 1.747 4.303) // $llx=1.717 $lly=4.303 $urx=1.778 $ury=4.303 $lvl=35
*|S (2362 1.9 4.157) // $llx=1.87 $lly=4.132 $urx=1.931 $ury=4.183 $lvl=35
*|S (2396 1.9 4.251) // $llx=1.87 $lly=4.23 $urx=1.931 $ury=4.272 $lvl=35
*|S (2363 1.9 4.303) // $llx=1.87 $lly=4.303 $urx=1.931 $ury=4.303 $lvl=35
*|S (2256 1.747 4.065) // $llx=1.717 $lly=4.044 $urx=1.778 $ury=4.086 $lvl=35
*|S (2392 1.9 4.065) // $llx=1.87 $lly=4.044 $urx=1.931 $ury=4.086 $lvl=35
*|S (1888 1.9 4.008) // $llx=1.87 $lly=4.008 $urx=1.931 $ury=4.008 $lvl=35
*|S (2255 1.747 4.008) // $llx=1.717 $lly=4.008 $urx=1.778 $ury=4.008 $lvl=35
Cg127_84 2200 gnd! 3.54943e-17
Cg127_85 2201 gnd! 2.09775e-17
Cg127_86 2362 gnd! 2.88775e-17
Cg127_87 2363 gnd! 2.14308e-17
Cg127_88 F2601 gnd! 3.84149e-17
Cg127_89 F2545 gnd! 4.18063e-17
R127_167 2200 2260 0.153279 $l=0.094 $w=0.061 $lvl=35
R127_168 2200 2362 0.280392 $l=0.153 $w=0.051 $lvl=35
R127_169 2200 F2601 150 $a=0.001764 $lvl=56
R127_170 2200 2256 0.140984 $l=0.092 $w=0.061 $lvl=35
R127_171 2260 2201 0.0852459 $l=0.052 $w=0.061 $lvl=35
R127_172 2260 F2601 150 $a=0.001764 $lvl=56
R127_173 2362 2396 0.153279 $l=0.094 $w=0.061 $lvl=35
R127_174 2362 F2545 150 $a=0.001764 $lvl=56
R127_175 2362 2392 0.140984 $l=0.092 $w=0.061 $lvl=35
R127_176 2396 2363 0.0852459 $l=0.052 $w=0.061 $lvl=35
R127_177 2396 F2545 150 $a=0.001764 $lvl=56
R127_178 F2601 2256 150 $a=0.001764 $lvl=56
R127_179 F2545 2392 150 $a=0.001764 $lvl=56
R127_180 2256 2255 0.0934426 $l=0.057 $w=0.061 $lvl=35
R127_181 2392 1888 0.0934426 $l=0.057 $w=0.061 $lvl=35

*|NET XI3|XI14|net18 0.000180094PF
*|I (F2595 XI3|XI14|MM3 SRC B 0 1.231 4.16) // $llx=1.231 $lly=4.16 $urx=1.231 $ury=4.16 $lvl=5
*|I (F2605 XI3|XI14|MM1 DRN B 0 1.505 4.16) // $llx=1.505 $lly=4.16 $urx=1.505 $ury=4.16 $lvl=5
*|S (1758 1.445 4.167) // $llx=1.415 $lly=4.138 $urx=1.476 $ury=4.196 $lvl=35
*|S (1760 1.445 4.251) // $llx=1.415 $lly=4.23 $urx=1.476 $ury=4.272 $lvl=35
*|S (1715 1.445 4.303) // $llx=1.415 $lly=4.303 $urx=1.476 $ury=4.303 $lvl=35
*|S (1516 1.292 4.178) // $llx=1.262 $lly=4.145 $urx=1.323 $ury=4.212 $lvl=35
*|S (1600 1.292 4.3) // $llx=1.262 $lly=4.3 $urx=1.323 $ury=4.3 $lvl=35
*|S (1756 1.445 4.065) // $llx=1.415 $lly=4.044 $urx=1.476 $ury=4.086 $lvl=35
*|S (1714 1.445 4.008) // $llx=1.415 $lly=4.008 $urx=1.476 $ury=4.008 $lvl=35
Cg126_90 1715 gnd! 2.23165e-17
Cg126_91 1516 gnd! 4.07486e-17
Cg126_92 F2595 gnd! 4.29135e-17
Cg126_93 F2605 gnd! 4.05169e-17
Cg126_94 1714 gnd! 3.35984e-17
R126_182 1758 1760 0.137705 $l=0.084 $w=0.061 $lvl=35
R126_183 1758 1516 0.279412 $l=0.153 $w=0.051 $lvl=35
R126_184 1758 F2605 150 $a=0.001764 $lvl=56
R126_185 1758 1756 0.157377 $l=0.102 $w=0.061 $lvl=35
R126_186 1760 1715 0.0852459 $l=0.052 $w=0.061 $lvl=35
R126_187 1760 F2605 150 $a=0.001764 $lvl=56
R126_188 1516 1600 0.194262 $l=0.122 $w=0.061 $lvl=35
R126_189 1516 F2595 150 $a=0.001764 $lvl=56
R126_190 F2605 1756 150 $a=0.001764 $lvl=56
R126_191 1756 1714 0.0934426 $l=0.057 $w=0.061 $lvl=35

*|NET ln_N_2203 0.000214578PF
*|S (1601 2.432 4.51) // $llx=2.417 $lly=4.51 $urx=2.447 $ury=4.51 $lvl=30
*|S (3088 2.432 3.09) // $llx=2.417 $lly=3.09 $urx=2.447 $ury=3.09 $lvl=30
Cg386_95 3088 gnd! 2.14578e-16
R386_192 1601 3088 710 $l=1.42 $w=0.03 $lvl=30

*|NET ln_N_2191 0.000210144PF
*|S (1524 2.128 4.51) // $llx=2.113 $lly=4.51 $urx=2.143 $ury=4.51 $lvl=30
*|S (2672 2.128 3.09) // $llx=2.113 $lly=3.09 $urx=2.143 $ury=3.09 $lvl=30
Cg374_96 2672 gnd! 2.10144e-16
R374_193 1524 2672 710 $l=1.42 $w=0.03 $lvl=30

*|NET ln_N_2184 0.000208954PF
*|S (1658 1.824 4.51) // $llx=1.809 $lly=4.51 $urx=1.839 $ury=4.51 $lvl=30
*|S (2304 1.824 3.09) // $llx=1.809 $lly=3.09 $urx=1.839 $ury=3.09 $lvl=30
Cg367_97 2304 gnd! 2.08954e-16
R367_194 1658 2304 710 $l=1.42 $w=0.03 $lvl=30

*|NET ln_N_2177 0.000208179PF