*SPEF "IEEE 1481-1998"
*DESIGN "adder_2bit"
*DATE "Thu Feb 23 13:36:00 2017"
*VENDOR "Cadence Design Systems, Inc."
*PROGRAM "Encounter"
*VERSION "14.27-s035_1"
*DESIGN_FLOW "PIN_CAP NONE" "NAME_SCOPE LOCAL"
*DIVIDER /
*DELIMITER :
*BUS_DELIMITER []
*T_UNIT 1 NS
*C_UNIT 1 PF
*R_UNIT 1 OHM
*L_UNIT 1 HENRY

// MMMC spef file for corner 'RC_corner_25'

*NAME_MAP

*1 FE_OFN20_b1
*2 FE_OFN19_n_54
*3 FE_OFN18_b1
*4 FE_OFN16_b0
*5 FE_OFN15_n_13
*6 FE_OFN14_b1
*7 FE_OFN13_n_14
*8 FE_OFN12_n_12
*9 FE_OFN11_a1
*10 FE_OFN10_b1
*11 FE_OFN9_a1
*12 FE_OFN8_b1
*13 FE_OFN7_n_13
*14 FE_OFN6_n_12
*15 FE_OFN5_n_13
*16 FE_OFN4_n_14
*17 FE_OFN3_b0
*18 FE_OFN2_a0
*19 FE_OFN1_a1
*20 FE_OFN0_b1
*21 clk
*22 a[1]
*23 a[0]
*24 b[1]
*25 b[0]
*26 sum[1]
*27 sum[0]
*28 cout
*29 a0
*30 a1
*31 b0
*32 b1
*33 n_4
*34 n_5
*35 n_7
*36 n_9
*37 n_12
*38 n_13
*39 n_14
*40 n_53
*41 n_54
*42 FE_OFC20_b1
*43 FE_OFC19_n_54
*44 FE_OFC18_b1
*45 FE_OFC16_b0
*46 FE_OFC15_n_13
*47 FE_OFC14_b1
*48 FE_OFC13_n_14
*49 FE_OFC12_n_12
*50 FE_OFC11_a1
*51 FE_OFC10_b1
*52 FE_OFC9_a1
*53 FE_OFC8_b1
*54 FE_OFC7_n_13
*55 FE_OFC6_n_12
*56 FE_OFC5_n_13
*57 FE_OFC4_n_14
*58 FE_OFC3_b0
*59 FE_OFC2_a0
*60 FE_OFC1_a1
*61 FE_OFC0_b1
*62 g191
*63 g193
*64 f6_q_reg
*65 f7_q_reg
*66 g195
*67 g196
*68 g198
*69 f5_q_reg
*70 g199
*71 g200
*72 f4_q_reg
*73 f3_q_reg
*74 f1_q_reg
*75 f2_q_reg
*76 g3
*77 g2


*PORTS

*21 I *C 0 6.264
*22 I *C 0 10.296
*23 I *C 0 3.816
*24 I *C 0 6.984
*25 I *C 3.096 0
*26 O *C 13.284 8.568
*27 O *C 2.232 0
*28 O *C 6.408 12.96


*D_NET *1 0.000361438

*CONN
*I *51:A I *C 4.752 8.928 *L 0.000659 *D BUFx6f_ASAP7_75t_R
*I *42:Y O *C 2.16 7.776 *L 0 *D BUFx4_ASAP7_75t_R

*CAP
1 *1:2 0.000307369
2 *1:4 2.24656e-05
3 *1:5 3.16039e-05

*RES
1 *42:Y *1:2 10
2 *1:2 *1:3 0.871091
3 *1:5 *1:3 10.2489
4 *1:5 *1:4 10.0622
5 *51:A *1:4 10
*END

*D_NET *17 0.000654286

*CONN
*I *71:A I *C 5.976 2.736 *L 0.000656 *D XOR2xp5_ASAP7_75t_R_v2
*I *58:Y O *C 10.152 2.304 *L 0 *D BUFx6f_ASAP7_75t_R
*I *45:A I *C 11.232 0.72 *L 0.00022 *D BUFx4_ASAP7_75t_R

*CAP
1 *71:A 3.68608e-05
2 *17:4 2.97344e-05
3 *17:5 0.000370225
4 *17:6 1.5858e-05
5 *17:7 8.12573e-05
6 *17:8 0.000120351

*RES
1 *17:5 *17:3 11.6177
2 *71:A *17:3 1
3 *17:4 *17:5 10
4 *17:4 *58:Y 0.5
5 *58:Y *17:7 10
6 *17:8 *17:7 10.1867
7 *17:8 *17:6 10.6844
8 *45:A *17:6 10
*END

*D_NET *33 0.000488087

*CONN
*I *71:Y O *C 6.696 2.88 *L 0 *D XOR2xp5_ASAP7_75t_R_v2
*I *69:D I *C 3.068 1.62 *L 0.000325 *D DFFHQNx4_ASAP7_75t_R

*CAP
1 *33:2 0.000148718
2 *33:3 0.00019062
3 *33:5 5.88659e-06
4 *33:6 4.89505e-05
5 *33:8 3.55713e-05
6 *33:9 5.83397e-05

*RES
1 *33:3 *33:5 0.871091
2 *33:5 *33:6 0.0311104
3 *33:6 *33:7 0.186662
4 *33:9 *33:7 10.4355
5 *33:9 *33:8 10.1244
6 *71:Y *33:8 10
7 *33:3 *33:4 0.0311104
8 *33:2 *33:4 0.497766
9 *69:D *33:2 10
*END

*D_NET *2 0.000249962

*CONN
*I *68:A I *C 12.888 9.216 *L 0.00033 *D MAJIxp5_ASAP7_75t_R
*I *43:Y O *C 12.312 5.616 *L 0 *D BUFx4_ASAP7_75t_R

*CAP
1 *2:2 1.5858e-05
2 *2:3 1.5858e-05
3 *2:4 0.000140934
4 *2:5 1.18489e-05
5 *2:6 3.81326e-05
6 *2:7 2.73306e-05

*RES
1 *2:6 *2:2 10.1867
2 *43:Y *2:2 10
3 *2:4 *2:6 0.0622208
4 *2:4 *2:5 0.871091
5 *2:5 *2:7 0.0622208
6 *2:7 *2:3 10.1867
7 *68:A *2:3 10
*END

*D_NET *18 0.00033261

*CONN
*I *77:A I *C 7.6 5.94 *L 0.000164 *D NOR2xp33_ASAP7_75t_R
*I *71:B I *C 7.416 2.736 *L 0.000654 *D XOR2xp5_ASAP7_75t_R_v2
*I *59:Y O *C 5.832 6.336 *L 0 *D BUFx6f_ASAP7_75t_R

*CAP
1 *18:3 3.06132e-05
2 *18:4 6.56986e-06
3 *18:5 4.69574e-05
4 *18:6 4.71724e-05
5 *18:8 0.000201298

*RES
1 *18:6 *18:8 10
2 *18:8 *18:5 11.2444
3 *18:5 *18:7 0.124442
4 *71:B *18:7 10
5 *59:Y *18:6 10
6 *18:6 *18:3 10.1244
7 *18:3 *18:4 1
8 *18:4 *77:A 0.125
*END

*D_NET *34 0.00114158

*CONN
*I *70:Y O *C 4.104 7.92 *L 0 *D XOR2xp5_ASAP7_75t_R_v1
*I *66:B I *C 9.576 0.72 *L 0.000466 *D XNOR2xp5_ASAP7_75t_R_v2

*CAP
1 *34:2 4.32509e-05
2 *34:3 1.5858e-05
3 *34:4 1.85537e-05
4 *34:5 0.000145326
5 *34:6 0.000178836
6 *34:8 0.000151618
7 *34:10 8.15857e-06
8 *34:11 5.58917e-05
9 *34:13 0.000524087

*RES
1 *34:2 *34:4 0.186662
2 *34:4 *34:5 0.0622208
3 *34:5 *34:7 0.622208
4 *34:6 *34:7 0.0622208
5 *34:6 *34:9 0.746649
6 *34:8 *34:9 0.0622208
7 *34:8 *34:10 0.497766
8 *34:10 *34:11 0.0622208
9 *34:11 *34:12 0.186662
10 *66:B *34:12 10
11 *34:13 *34:2 13.111
12 *34:3 *34:13 10
13 *70:Y *34:3 10
*END

*D_NET *3 0.000843682

*CONN
*I *70:B I *C 4.68 8.064 *L 0.000657 *D XOR2xp5_ASAP7_75t_R_v1
*I *47:A I *C 9.328 10.26 *L 0.00011 *D HB1xp67_ASAP7_75t_R
*I *44:Y O *C 10.152 6.624 *L 0 *D BUFx6f_ASAP7_75t_R

*CAP
1 *3:3 0.000453169
2 *3:4 1.5858e-05
3 *3:5 1.58412e-05
4 *3:6 0.000115621
5 *3:8 4.81644e-05
6 *3:9 0.000195029

*RES
1 *3:4 *3:8 10
2 *3:8 *3:3 10.3111
3 *3:3 *3:6 1.67996
4 *3:9 *3:6 11.12
5 *3:9 *3:5 10.0311
6 *47:A *3:5 10
7 *3:6 *3:7 0.311104
8 *44:Y *3:7 10
9 *70:B *3:4 10
*END

*D_NET *19 0.000578821

*CONN
*I *70:A I *C 3.24 7.92 *L 0.000658 *D XOR2xp5_ASAP7_75t_R_v1
*I *60:Y O *C 2.592 12.096 *L 0 *D BUFx10_ASAP7_75t_R
*I *50:A I *C 1.728 8.928 *L 0.000439 *D BUFx8_ASAP7_75t_R

*CAP
1 *19:3 3.4951e-05
2 *19:4 0.000145495
3 *19:5 0.000113281
4 *19:8 7.42619e-05
5 *19:9 4.92939e-06
6 *19:10 3.18168e-05
7 *19:11 0.000174086

*RES
1 *19:9 *19:11 0.0622208
2 *19:11 *19:12 0.933312
3 *19:10 *19:12 0.0622208
4 *19:10 *19:5 10.1867
5 *19:5 *19:6 0.311104
6 *60:Y *19:6 10
7 *19:8 *19:9 0.186662
8 *19:8 *19:3 10.0622
9 *50:A *19:3 10
10 *19:8 *19:4 10.3111
11 *19:4 *19:7 0.559987
12 *70:A *19:7 10
*END

*D_NET *35 0.00113508

*CONN
*I *68:Y O *C 12.744 9.36 *L 0 *D MAJIxp5_ASAP7_75t_R
*I *65:D I *C 3.068 10.26 *L 0.000325 *D DFFHQNx4_ASAP7_75t_R

*CAP
1 *35:2 6.48236e-05
2 *35:3 0.000529396
3 *35:5 8.15857e-06
4 *35:6 9.7344e-05
5 *35:7 7.70783e-05
6 *35:9 0.000310607
7 *35:11 4.76763e-05

*RES
1 *35:6 *35:8 0.311104
2 *35:7 *35:8 0.0622208
3 *35:11 *35:7 10.1867
4 *35:11 *35:9 10.1867
5 *35:9 *35:10 1.36886
6 *68:Y *35:10 10
7 *35:5 *35:6 0.0622208
8 *35:3 *35:5 2.11551
9 *35:3 *35:4 0.0622208
10 *35:2 *35:4 0.186662
11 *65:D *35:2 10
*END

*D_NET *4 0.000858816

*CONN
*I *77:B I *C 7.848 5.904 *L 0.000171 *D NOR2xp33_ASAP7_75t_R
*I *45:Y O *C 11.664 0.864 *L 0 *D BUFx4_ASAP7_75t_R

*CAP
1 *4:2 5.29126e-05
2 *4:3 1.29818e-05
3 *4:4 0.000269692
4 *4:5 7.71253e-05
5 *4:7 9.73423e-05
6 *4:10 8.65021e-05
7 *4:11 4.92939e-06
8 *4:12 3.83223e-05
9 *4:13 0.000219009

*RES
1 *77:B *4:2 10
2 *4:2 *4:3 0.186662
3 *4:3 *4:4 0.0622208
4 *4:4 *4:6 0.995532
5 *4:5 *4:6 0.0622208
6 *4:5 *4:8 0.186662
7 *4:13 *4:8 11.3689
8 *4:11 *4:13 0.0622208
9 *4:10 *4:11 0.559987
10 *4:10 *4:12 0.0622208
11 *4:12 *4:7 10.1867
12 *4:7 *4:9 0.311104
13 *45:Y *4:9 10
*END

*D_NET *20 0.000207871

*CONN
*I *61:Y O *C 10.152 6.336 *L 0 *D BUFx6f_ASAP7_75t_R
*I *44:A I *C 9.288 6.768 *L 0.000659 *D BUFx6f_ASAP7_75t_R

*CAP
1 *61:Y 2.82844e-05
2 *20:3 3.55713e-05
3 *20:4 5.82639e-05
4 *20:5 8.57509e-05

*RES
1 *20:4 *20:2 10.1867
2 *61:Y *20:2 0.5
3 *20:5 *20:4 10.4978
4 *20:5 *20:3 10.1244
5 *44:A *20:3 10
*END

*D_NET *36 0.00130957

*CONN
*I *66:Y O *C 10.152 0.144 *L 0 *D XNOR2xp5_ASAP7_75t_R_v2
*I *64:D I *C 3.068 7.02 *L 0.000325 *D DFFHQNx4_ASAP7_75t_R

*CAP
1 *36:2 5.08959e-05
2 *36:3 8.15857e-06
3 *36:4 0.000151554
4 *36:5 0.000119901
5 *36:7 0.000272731
6 *36:9 8.15857e-06
7 *36:10 0.00019696
8 *36:11 5.49567e-05
9 *36:13 0.00044625

*RES
1 *36:9 *36:10 0.0622208
2 *36:13 *36:10 10.6844
3 *36:13 *36:11 12.6755
4 *36:11 *36:12 0.124442
5 *66:Y *36:12 10
6 *36:7 *36:9 1.18219
7 *36:7 *36:8 0.0622208
8 *36:5 *36:8 0.497766
9 *36:5 *36:6 0.0622208
10 *36:4 *36:6 0.684429
11 *36:3 *36:4 0.0622208
12 *36:2 *36:3 0.186662
13 *64:D *36:2 10
*END

*D_NET *5 0.000476204

*CONN
*I *56:A I *C 9.544 3.78 *L 0.00132 *D BUFx12f_ASAP7_75t_R
*I *46:Y O *C 10.656 8.496 *L 0 *D BUFx12f_ASAP7_75t_R

*CAP
1 *5:2 8.14751e-05
2 *5:4 7.89298e-05
3 *5:6 0.000129438
4 *5:7 1.94001e-05
5 *5:8 3.7307e-05
6 *5:9 0.000129654

*RES
1 *5:4 *5:5 0.186662
2 *46:Y *5:5 10
3 *5:9 *5:4 10.7466
4 *5:7 *5:9 0.0622208
5 *5:6 *5:7 0.684429
6 *5:6 *5:8 0.0622208
7 *5:8 *5:3 10.1867
8 *5:2 *5:3 0.248883
9 *56:A *5:2 10
*END

*D_NET *21 0.00139383

*CONN
*P *21 I *C 0 6.264 *L 0
*I *75:CLK I *C 1.872 11.088 *L 0.000219 *D DFFHQNx4_ASAP7_75t_R
*I *74:CLK I *C 1.872 4.032 *L 0.000219 *D DFFHQNx4_ASAP7_75t_R
*I *73:CLK I *C 2.304 0.288 *L 0.000219 *D DFFHQNx4_ASAP7_75t_R
*I *72:CLK I *C 1.872 4.608 *L 0.000219 *D DFFHQNx4_ASAP7_75t_R
*I *69:CLK I *C 2.304 1.872 *L 0.000219 *D DFFHQNx4_ASAP7_75t_R
*I *65:CLK I *C 2.304 10.512 *L 0.000219 *D DFFHQNx4_ASAP7_75t_R
*I *64:CLK I *C 2.304 6.768 *L 0.000219 *D DFFHQNx4_ASAP7_75t_R

*CAP
1 *21 3.58907e-05
2 *21:8 0.000182304
3 *21:10 0.000188517
4 *21:11 2.94553e-05
5 *21:12 1.5858e-05
6 *21:14 5.29052e-05
7 *21:15 1.5858e-05
8 *21:16 2.26074e-05
9 *21:17 2.13052e-05
10 *21:21 6.40162e-05
11 *21:22 0.000151942
12 *21:23 0.000115065
13 *21:24 4.92939e-06
14 *21:25 0.000270568
15 *21:26 6.02089e-05
16 *21:27 2.56003e-05
17 *21:28 9.42717e-05
18 *21:29 4.25285e-05

*RES
1 *21 *21:9 0.077776
2 *21:9 *21:22 10
3 *21:22 *21:10 10.3733
4 *21:10 *21:14 0.684429
5 *21:26 *21:14 10.3733
6 *21:23 *21:26 0.0622208
7 *21:23 *21:24 0.746649
8 *21:24 *21:27 0.0622208
9 *21:27 *21:28 0.186662
10 *21:28 *21:21 10.1867
11 *65:CLK *21:21 10
12 *21:28 *21:15 10.56
13 *75:CLK *21:15 10
14 *21:14 *21:20 0.186662
15 *64:CLK *21:20 10
16 *21:22 *21:8 10.56
17 *21:8 *21:13 0.684429
18 *72:CLK *21:13 10
19 *21:25 *21:13 10.56
20 *21:12 *21:25 10
21 *74:CLK *21:12 10
22 *21:25 *21:11 10.9333
23 *21:11 *21:17 0.124442
24 *21:17 *21:29 10
25 *21:29 *21:16 10.3111
26 *21:16 *21:18 0.0622208
27 *73:CLK *21:18 10
28 *21:17 *21:19 0.0622208
29 *69:CLK *21:19 10
*END

*D_NET *37 0.000312711

*CONN
*I *65:QN O *C 7.632 10.656 *L 0 *D DFFHQNx4_ASAP7_75t_R
*I *49:A I *C 9.936 11.088 *L 0.000659 *D BUFx6f_ASAP7_75t_R

*CAP
1 *37:2 0.000172701
2 *37:4 9.14849e-05
3 *37:5 4.85256e-05

*RES
1 *37:2 *37:3 0.373325
2 *37:5 *37:3 10.2489
3 *37:5 *37:4 10.3733
4 *49:A *37:4 10
5 *65:QN *37:2 10
*END

*D_NET *6 0.00105813

*CONN
*I *47:Y O *C 10.152 9.936 *L 0 *D HB1xp67_ASAP7_75t_R
*I *42:A I *C 1.728 7.92 *L 0.00022 *D BUFx4_ASAP7_75t_R

*CAP
1 *6:2 0.000161204
2 *6:4 0.000211438
3 *6:5 8.67176e-05
4 *6:6 5.88659e-06
5 *6:7 0.000170495
6 *6:8 8.15857e-06
7 *6:9 0.000183004
8 *6:10 6.19228e-05
9 *6:13 0.000169299

*RES
1 *6:8 *6:9 0.0622208
2 *6:9 *6:11 0.746649
3 *6:10 *6:11 0.0622208
4 *6:10 *6:12 0.186662
5 *47:Y *6:12 10
6 *6:7 *6:8 0.80887
7 *6:6 *6:7 0.0311104
8 *6:4 *6:6 0.995532
9 *6:4 *6:5 0.0311104
10 *6:13 *6:5 10.3111
11 *6:13 *6:3 10.9955
12 *6:2 *6:3 0.684429
13 *42:A *6:2 10
*END

*D_NET *22 0.000379469

*CONN
*P *22 I *C 0 10.296 *L 0
*I *75:D I *C 2.636 11.34 *L 0.000325 *D DFFHQNx4_ASAP7_75t_R

*CAP
1 *22 2.62115e-05
2 *22:3 0.000264949
3 *22:4 8.83089e-05

*RES
1 *22 *22:2 0.077776
2 *22:4 *22:2 10.56
3 *22:4 *22:3 11.0578
4 *75:D *22:3 10
*END

*D_NET *38 0.0005371

*CONN
*I *64:QN O *C 7.632 6.624 *L 0 *D DFFHQNx4_ASAP7_75t_R
*I *54:A I *C 10.584 10.512 *L 0.000659 *D BUFx6f_ASAP7_75t_R

*CAP
1 *38:2 0.000285197
2 *38:4 4.13119e-05
3 *38:5 0.000210591

*RES
1 *38:2 *38:3 0.933312
2 *38:5 *38:3 11.1822
3 *38:5 *38:4 10.1244
4 *54:A *38:4 10
5 *64:QN *38:2 10
*END

*D_NET *7 0.00105575

*CONN
*I *57:A I *C 1.768 2.7 *L 0.00132 *D BUFx12f_ASAP7_75t_R
*I *48:Y O *C 10.152 2.016 *L 0 *D BUFx6f_ASAP7_75t_R

*CAP
1 *48:Y 2.82844e-05
2 *7:3 0.000182437
3 *7:4 5.15883e-05
4 *7:5 0.000357681
5 *7:7 8.15857e-06
6 *7:8 0.000327895
7 *7:9 9.97009e-05

*RES
1 *7:4 *7:6 0.186662
2 *7:5 *7:6 0.0622208
3 *7:5 *7:7 1.36886
4 *7:7 *7:8 0.0622208
5 *7:8 *7:2 11.3689
6 *48:Y *7:2 0.5
7 *7:9 *7:4 10.4978
8 *7:9 *7:3 10.6844
9 *57:A *7:3 10
*END

*D_NET *23 0.000342198

*CONN
*P *23 I *C 0 3.816 *L 0
*I *74:D I *C 2.636 3.78 *L 0.000325 *D DFFHQNx4_ASAP7_75t_R

*CAP
1 *23:3 0.000342198

*RES
1 *23:3 *23 0.124442
2 *23:3 *23:2 1.13553
3 *74:D *23:2 10
*END

*D_NET *39 0.000160613

*CONN
*I *69:QN O *C 7.632 2.016 *L 0 *D DFFHQNx4_ASAP7_75t_R
*I *48:A I *C 9.288 1.872 *L 0.000659 *D BUFx6f_ASAP7_75t_R

*CAP
1 *39:3 0.000160613

*RES
1 *48:A *39:2 10
2 *39:3 *39:2 0.497766
3 *69:QN *39:3 10
*END

*D_NET *8 0.000207454

*CONN
*I *55:A I *C 9.328 12.42 *L 0.00132 *D BUFx12f_ASAP7_75t_R
*I *49:Y O *C 10.8 10.944 *L 0 *D BUFx6f_ASAP7_75t_R

*CAP
1 *8:2 1.58412e-05
2 *8:3 0.000162732
3 *8:5 2.88806e-05

*RES
1 *55:A *8:2 10
2 *8:5 *8:2 10.0311
3 *8:5 *8:3 10.1867
4 *8:3 *8:4 0.622208
5 *49:Y *8:4 10
*END

*D_NET *24 0.000500222

*CONN
*P *24 I *C 0 6.984 *L 0
*I *72:D I *C 2.636 4.86 *L 0.000325 *D DFFHQNx4_ASAP7_75t_R

*CAP
1 *24 0.000220553
2 *24:2 0.000138705
3 *24:5 0.000140964

*RES
1 *24 *24:3 0.762205
2 *24:3 *24:5 10
3 *24:5 *24:2 10.8089
4 *24:2 *24:4 0.373325
5 *72:D *24:4 10
*END

*D_NET *40 0.000247974

*CONN
*I *77:Y O *C 7.992 6.336 *L 0 *D NOR2xp33_ASAP7_75t_R
*I *76:A I *C 9.328 4.86 *L 0.000396 *D INVx1_ASAP7_75t_R

*CAP
1 *40:2 3.71831e-05
2 *40:4 0.000210791

*RES
1 *40:4 *40:5 0.124442
2 *77:Y *40:5 10
3 *40:4 *40:3 10.4978
4 *40:2 *40:3 1
5 *40:2 *76:A 0.125
*END

*D_NET *9 0.000584997

*CONN
*I *52:A I *C 9.288 8.928 *L 0.000659 *D BUFx6f_ASAP7_75t_R
*I *50:Y O *C 2.592 9.504 *L 0 *D BUFx8_ASAP7_75t_R

*CAP
1 *9:3 3.39963e-05
2 *9:4 0.000551001

*RES
1 *9:3 *9:2 0.0622208
2 *9:4 *9:2 2.17773
3 *50:Y *9:4 10
4 *52:A *9:3 10
*END

*D_NET *25 7.32703e-05

*CONN
*P *25 I *C 3.096 0 *L 0
*I *73:D I *C 3.068 0.54 *L 0.000325 *D DFFHQNx4_ASAP7_75t_R

*CAP
1 *25 5.74123e-05
2 *25:3 1.5858e-05

*RES
1 *25:3 *25:2 10
2 *25 *25:2 0.264438
3 *73:D *25:3 10
*END

*D_NET *41 0.000600918

*CONN
*I *76:Y O *C 9.576 5.184 *L 0 *D INVx1_ASAP7_75t_R
*I *66:A I *C 9.288 0.288 *L 0.000543 *D XNOR2xp5_ASAP7_75t_R_v2
*I *43:A I *C 11.88 5.76 *L 0.00022 *D BUFx4_ASAP7_75t_R

*CAP
1 *41:3 1.5858e-05
2 *41:4 1.5858e-05
3 *41:5 0.000104177
4 *41:7 0.000174514
5 *41:8 0.000260264
6 *41:9 3.0247e-05

*RES
1 *41:4 *41:8 10
2 *41:8 *41:3 11.5555
3 *66:A *41:3 10
4 *76:Y *41:4 10
5 *76:Y *41:5 10
6 *41:5 *41:6 0.311104
7 *41:9 *41:6 10.1867
8 *41:9 *41:7 10.6844
9 *43:A *41:7 10
*END

*D_NET *10 0.000173906

*CONN
*I *53:A I *C 6.048 8.352 *L 0.000659 *D BUFx6f_ASAP7_75t_R
*I *51:Y O *C 5.616 8.784 *L 0 *D BUFx6f_ASAP7_75t_R

*CAP
1 *10:2 0.000108053
2 *10:3 1.5858e-05
3 *10:4 4.99947e-05

*RES
1 *53:A *10:3 10
2 *10:4 *10:3 10.3111
3 *10:4 *10:2 20
4 *10:2 *51:Y 2
*END

*D_NET *26 0.000295131

*CONN
*P *26 O *C 13.284 8.568 *L 0.015
*I *62:Y O *C 10.44 4.464 *L 0 *D INVx13_ASAP7_75t_R

*CAP
1 *26:2 1.5858e-05
2 *26:3 4.75944e-05
3 *26:4 3.23941e-05
4 *26:5 0.000106871
5 *26:6 9.24131e-05

*RES
1 *26:4 *26:6 0.0311104
2 *26:6 *26:7 0.559987
3 *26:5 *26:7 0.0311104
4 *26:5 *26:3 10.6844
5 *26:3 *26 0.0933312
6 *26:4 *26:2 10.1867
7 *62:Y *26:2 10
*END

*D_NET *11 7.10827e-05

*CONN
*I *68:C I *C 12.168 9.36 *L 0.000587 *D MAJIxp5_ASAP7_75t_R
*I *52:Y O *C 10.152 8.784 *L 0 *D BUFx6f_ASAP7_75t_R

*CAP
1 *11:3 7.10827e-05

*RES
1 *68:C *11:2 10
2 *11:3 *11:2 0.248883
3 *52:Y *11:3 10
*END

*D_NET *27 0.000460804

*CONN
*P *27 O *C 2.232 0 *L 0.015
*I *67:Y O *C 2.016 6.336 *L 0 *D INVx13_ASAP7_75t_R

*CAP
1 *27 3.63751e-05
2 *27:3 4.92939e-06
3 *27:4 7.69815e-05
4 *27:5 4.92939e-06
5 *27:6 3.76713e-05
6 *27:7 9.40409e-05
7 *27:9 0.000205876

*RES
1 *27 *27:3 0.202218
2 *27:3 *27:7 0.0622208
3 *27:7 *27:8 0.559987
4 *27:4 *27:8 0.0622208
5 *27:4 *27:5 0.435545
6 *27:5 *27:9 0.0622208
7 *27:9 *27:10 0.995532
8 *27:6 *27:10 0.0622208
9 *27:6 *27:2 10.1867
10 *67:Y *27:2 10
*END

*D_NET *12 0.000629738

*CONN
*I *68:B I *C 12.024 8.928 *L 0.000624 *D MAJIxp5_ASAP7_75t_R
*I *53:Y O *C 6.912 8.496 *L 0 *D BUFx6f_ASAP7_75t_R

*CAP
1 *12:2 0.000572833
2 *12:4 8.93943e-06
3 *12:5 1.5858e-05
4 *12:6 3.21076e-05

*RES
1 *12:6 *12:3 10.2489
2 *12:2 *12:3 1.55552
3 *53:Y *12:2 10
4 *12:4 *12:6 10
5 *12:4 *12:5 0.0190119
6 *68:B *12:5 10
*END

*D_NET *28 0.00011139

*CONN
*P *28 O *C 6.408 12.96 *L 0.015
*I *63:Y O *C 5.688 12.816 *L 0 *D INVx13_ASAP7_75t_R

*CAP
1 *63:Y 6.03573e-05
2 *28:3 5.1033e-05

*RES
1 *28:3 *28 0.202218
2 *28:3 *28:2 20
3 *63:Y *28:2 1.5
*END

*D_NET *13 0.000354448

*CONN
*I *54:Y O *C 11.448 10.656 *L 0 *D BUFx6f_ASAP7_75t_R
*I *46:A I *C 9.544 8.1 *L 0.00132 *D BUFx12f_ASAP7_75t_R

*CAP
1 *13:2 2.70046e-05
2 *13:4 0.000200265
3 *13:5 0.000127178

*RES
1 *13:2 *13:3 0.0622208
2 *13:5 *13:3 10.6844
3 *13:5 *13:4 10.7466
4 *54:Y *13:4 10
5 *46:A *13:2 10
*END

*D_NET *29 0.000392979

*CONN
*I *74:QN O *C 7.2 4.176 *L 0 *D DFFHQNx4_ASAP7_75t_R
*I *59:A I *C 4.968 6.192 *L 0.000659 *D BUFx6f_ASAP7_75t_R

*CAP
1 *74:QN 2.97344e-05
2 *29:3 4.68156e-05
3 *29:4 0.000152503
4 *29:5 0.000163926

*RES
1 *29:4 *29:2 10.7466
2 *74:QN *29:2 0.5
3 *29:5 *29:4 10.9333
4 *29:5 *29:3 10.1244
5 *59:A *29:3 10
*END

*D_NET *14 0.000522424

*CONN
*I *63:A I *C 5.44 12.42 *L 0.00428 *D INVx13_ASAP7_75t_R
*I *55:Y O *C 10.44 12.816 *L 0 *D BUFx12f_ASAP7_75t_R

*CAP
1 *55:Y 3.06132e-05
2 *14:3 0.000491811

*RES
1 *14:3 *14:2 12.1466
2 *55:Y *14:2 1
3 *63:A *14:3 10
*END

*D_NET *30 0.000625269

*CONN
*I *75:QN O *C 7.2 10.944 *L 0 *D DFFHQNx4_ASAP7_75t_R
*I *60:A I *C 1.728 12.672 *L 0.000659 *D BUFx10_ASAP7_75t_R

*CAP
1 *30:2 0.000330143
2 *30:3 0.000169626
3 *30:5 1.85537e-05
4 *30:6 5.8954e-05
5 *30:7 1.5858e-05
6 *30:8 3.2134e-05

*RES
1 *30:2 *30:4 1.4933
2 *30:3 *30:4 0.0622208
3 *30:3 *30:5 0.622208
4 *30:5 *30:6 0.0622208
5 *30:8 *30:6 10.1867
6 *30:8 *30:7 10.1867
7 *75:QN *30:7 10
8 *60:A *30:2 10
*END

*D_NET *15 0.000186159

*CONN
*I *62:A I *C 10.192 4.86 *L 0.00428 *D INVx13_ASAP7_75t_R
*I *56:Y O *C 10.656 4.176 *L 0 *D BUFx12f_ASAP7_75t_R

*CAP
1 *56:Y 2.97344e-05
2 *15:3 1.5858e-05
3 *15:4 4.81114e-05
4 *15:5 9.24551e-05

*RES
1 *56:Y *15:2 0.5
2 *15:4 *15:2 10.1244
3 *15:5 *15:4 10.4978
4 *15:5 *15:3 10.0311
5 *62:A *15:3 10
*END

*D_NET *31 0.000299457

*CONN
*I *73:QN O *C 7.632 0.144 *L 0 *D DFFHQNx4_ASAP7_75t_R
*I *58:A I *C 9.288 2.448 *L 0.000659 *D BUFx6f_ASAP7_75t_R

*CAP
1 *31:2 4.25511e-05
2 *31:4 0.000131283
3 *31:5 0.000125623

*RES
1 *58:A *31:4 10
2 *31:5 *31:4 10.4355
3 *31:5 *31:3 10.6844
4 *31:2 *31:3 0.0622208
5 *73:QN *31:2 10
*END

*D_NET *16 0.00039869

*CONN
*I *67:A I *C 1.768 5.94 *L 0.00428 *D INVx13_ASAP7_75t_R
*I *57:Y O *C 2.88 2.304 *L 0 *D BUFx12f_ASAP7_75t_R

*CAP
1 *16:2 4.32874e-05
2 *16:3 0.000114272
3 *16:6 3.2251e-05
4 *16:7 4.23867e-05
5 *16:8 0.000166492

*RES
1 *16:3 *16:5 0.373325
2 *57:Y *16:5 10
3 *16:6 *16:3 10.1867
4 *16:6 *16:8 0.0311104
5 *16:8 *16:9 0.746649
6 *16:7 *16:9 0.0311104
7 *16:7 *16:4 10.1867
8 *16:2 *16:4 0.0622208
9 *67:A *16:2 10
*END

*D_NET *32 0.000241587

*CONN
*I *72:QN O *C 7.2 4.464 *L 0 *D DFFHQNx4_ASAP7_75t_R
*I *61:A I *C 9.288 6.192 *L 0.000659 *D BUFx6f_ASAP7_75t_R

*CAP
1 *32:2 2.82841e-05
2 *32:4 0.000178183
3 *32:5 3.512e-05

*RES
1 *72:QN *32:2 10
2 *32:2 *32:3 0.0622208
3 *32:5 *32:3 10.1867
4 *32:5 *32:4 10.6222
5 *61:A *32:4 10
*END

