*
*|DSPF 1.3
*|DESIGN C2MOS_new
*|DATE "Sun Nov 20 21:19:11 2016"
*|VENDOR "Synopsys"
*|PROGRAM "StarRC"
*|VERSION "K-2015.06-SP1"
*|DIVIDER |
*|DELIMITER :
**FORMAT STAR
*

** COMMENTS

** OPERATING_TEMPERATURE 25
** GLOBAL_TEMPERATURE 25
** TCAD_GRD_FILE /afs/asu.edu/users/a/p/a/aparame2/425_lab/iPDK/starrc/nominal/saed32nm_1p9m_nominal.nxtgrd
**   TCAD_TIME_STAMP Wed Mar 16 14:34:54 2011
**   TCADGRD_VERSION 72


.SUBCKT C2MOS_new clk D clkb gnd! vcc! Q

*|GROUND_NET gnd!

*LAYER_MAP

*0 SUBSTRATE
*1 psub
*2 nwnr
*3 pwell
*4 nsd
*5 psd
*6 ntap
*7 ptap
*8 psdr
*9 nsdr
*10 1_0V_BJT_BASE
*11 1_0V_BJT_COLL
*12 1_0V_BJT_EMIT
*13 1_0V_BJT_COLL_NPN
*14 1_0V_BJT_EMIT_NPN
*15 1_0V_BJT_BASE_NPN
*16 subtie_scon
*17 subtie
*18 pdores
*19 ndores
*20 ngate_105
*21 pgate_105
*22 ngate_25
*23 pgate_25
*24 ngate_18
*25 pgate_18
*26 ngate_105_lvt
*27 pgate_105_lvt
*28 ngate_105_hvt
*29 pgate_105_hvt
*30 ponr
*31 ppores
*32 npores
*33 ppores_sblk
*34 npores_sblk
*35 m1
*36 m1res
*37 m2
*38 m2res
*39 m3
*40 m3res
*41 m4
*42 m4res
*43 m5
*44 m5res
*45 m6
*46 m6res
*47 m7
*48 m7res
*49 m8
*50 m8res
*51 m9
*52 m9res
*53 mrdl
*54 pwell_cont
*55 nwell_cont
*56 codiff
*57 copoly
*58 via1
*59 via2
*60 via3
*61 via4
*62 via5
*63 via6
*64 via7
*65 via8
*66 viardl
*67 1_0V_BJT_BASE_cont_NPN
*68 1_0V_BJT_BASE_cont
*69 1_0V_BJT_COLL_cont
*70 1_0V_BJT_EMIT_cont
*71 1_0V_BJT_COLL_cont_NPN
*72 m1pin_marker
*73 m2pin_marker
*74 m3pin_marker
*75 m4pin_marker
*76 m5pin_marker
*77 m6pin_marker
*78 m7pin_marker
*79 m8pin_marker
*80 m9pin_marker


*|NET ln_N_23 0.000200184PF
*|S (226 1.064 0.152) // $llx=1.064 $lly=0.124 $urx=1.064 $ury=0.18 $lvl=37
*|S (8 0 0.152) // $llx=0 $lly=0.124 $urx=0 $ury=0.18 $lvl=37
Cg21_1 8 gnd! 2.00184e-16
R21_1 226 8 1.9 $l=1.064 $w=0.056 $lvl=37

*|NET net18 0.000289118PF
*|I (F40 MM4 SRC B 0 0.137 0.371) // $llx=0.137 $lly=0.371 $urx=0.137 $ury=0.371 $lvl=4
*|I (F38 MM6 DRN B 0 0.623 0.371) // $llx=0.623 $lly=0.371 $urx=0.623 $ury=0.371 $lvl=4
*|S (223 0.683 0.15) // $llx=0.653 $lly=0.125 $urx=0.714 $ury=0.176 $lvl=35
*|S (25 0.075 0.15) // $llx=0.045 $lly=0.125 $urx=0.106 $ury=0.176 $lvl=35
*|S (30 0.075 0.277) // $llx=0.045 $lly=0.256 $urx=0.106 $ury=0.298 $lvl=35
*|S (32 0.075 0.371) // $llx=0.045 $lly=0.35 $urx=0.106 $ury=0.392 $lvl=35
*|S (34 0.075 0.463) // $llx=0.045 $lly=0.442 $urx=0.106 $ury=0.484 $lvl=35
*|S (28 0.075 0.506) // $llx=0.045 $lly=0.506 $urx=0.106 $ury=0.506 $lvl=35
*|S (153 0.684 0.255) // $llx=0.643 $lly=0.234 $urx=0.725 $ury=0.276 $lvl=35
*|S (146 0.684 0.231) // $llx=0.643 $lly=0.231 $urx=0.725 $ury=0.231 $lvl=35
*|S (147 0.684 0.286) // $llx=0.643 $lly=0.286 $urx=0.725 $ury=0.286 $lvl=35
Cg13_2 223 gnd! 5.3261e-18
Cg13_3 25 gnd! 1.72055e-16
Cg13_4 F40 gnd! 3.56099e-17
Cg13_5 F38 gnd! 4.16468e-17
Cg13_6 146 gnd! 3.44804e-17
R13_2 223 25 1.17059 $l=0.608 $w=0.051 $lvl=35
R13_3 223 146 0.131967 $l=0.081 $w=0.061 $lvl=35
R13_4 25 30 0.207377 $l=0.127 $w=0.061 $lvl=35
R13_5 30 32 0.154098 $l=0.094 $w=0.061 $lvl=35
R13_6 30 F40 150 $a=0.001764 $lvl=56
R13_7 32 34 0.15082 $l=0.092 $w=0.061 $lvl=35
R13_8 32 F40 150 $a=0.001764 $lvl=56
R13_9 34 28 0.0704918 $l=0.043 $w=0.061 $lvl=35
R13_10 34 F40 150 $a=0.001764 $lvl=56
R13_11 F38 153 150 $a=0.001764 $lvl=56
R13_12 153 146 0.0292683 $l=0.024 $w=0.082 $lvl=35
R13_13 153 147 0.0378049 $l=0.031 $w=0.082 $lvl=35

*|NET ln_N_25 0.000193052PF
*|S (82 1.064 0.608) // $llx=1.064 $lly=0.58 $urx=1.064 $ury=0.636 $lvl=37
*|S (11 0 0.608) // $llx=0 $lly=0.58 $urx=0 $ury=0.636 $lvl=37
Cg23_7 11 gnd! 1.93052e-16
R23_14 82 11 1.9 $l=1.064 $w=0.056 $lvl=37

*|NET ln_N_24 0.000190527PF
*|S (208 1.064 0.76) // $llx=1.064 $lly=0.732 $urx=1.064 $ury=0.788 $lvl=37
*|S (12 0 0.76) // $llx=0 $lly=0.732 $urx=0 $ury=0.788 $lvl=37
Cg22_8 12 gnd! 1.90527e-16
R22_15 208 12 1.9 $l=1.064 $w=0.056 $lvl=37

*|NET ln_N_22 0.000200909PF
*|S (26 1.064 0.912) // $llx=1.064 $lly=0.884 $urx=1.064 $ury=0.94 $lvl=37
*|S (13 0 0.912) // $llx=0 $lly=0.884 $urx=0 $ury=0.94 $lvl=37
Cg20_9 13 gnd! 2.00909e-16
R20_16 26 13 1.9 $l=1.064 $w=0.056 $lvl=37

*|NET ln_N_21 0.000192804PF
*|S (24 1.064 1.216) // $llx=1.064 $lly=1.188 $urx=1.064 $ury=1.244 $lvl=37
*|S (15 0 1.216) // $llx=0 $lly=1.188 $urx=0 $ury=1.244 $lvl=37
Cg19_10 15 gnd! 1.92804e-16
R19_17 24 15 1.9 $l=1.064 $w=0.056 $lvl=37

*|NET net19 0.000189948PF
*|I (F58 MM5 DRN B 0 0.623 1.12) // $llx=0.623 $lly=1.12 $urx=0.623 $ury=1.12 $lvl=5
*|I (F48 MM7 SRC B 0 0.897 1.12) // $llx=0.897 $lly=1.12 $urx=0.897 $ury=1.12 $lvl=5
*|S (149 0.683 1.117) // $llx=0.653 $lly=1.092 $urx=0.714 $ury=1.143 $lvl=35
*|S (159 0.683 1.211) // $llx=0.653 $lly=1.19 $urx=0.714 $ury=1.232 $lvl=35
*|S (150 0.683 1.263) // $llx=0.653 $lly=1.263 $urx=0.714 $ury=1.263 $lvl=35
*|S (168 0.836 1.117) // $llx=0.806 $lly=1.092 $urx=0.867 $ury=1.143 $lvl=35
*|S (176 0.836 1.211) // $llx=0.806 $lly=1.19 $urx=0.867 $ury=1.232 $lvl=35
*|S (169 0.836 1.263) // $llx=0.806 $lly=1.263 $urx=0.867 $ury=1.263 $lvl=35
*|S (155 0.683 1.025) // $llx=0.653 $lly=1.004 $urx=0.714 $ury=1.046 $lvl=35
*|S (172 0.836 1.025) // $llx=0.806 $lly=1.004 $urx=0.867 $ury=1.046 $lvl=35
*|S (198 0.836 0.968) // $llx=0.806 $lly=0.968 $urx=0.867 $ury=0.968 $lvl=35
*|S (52 0.683 0.968) // $llx=0.653 $lly=0.968 $urx=0.714 $ury=0.968 $lvl=35
Cg16_11 149 gnd! 3.6854e-17
Cg16_12 150 gnd! 2.02236e-17
Cg16_13 168 gnd! 2.94915e-17
Cg16_14 169 gnd! 2.07463e-17
Cg16_15 F58 gnd! 4.12547e-17
Cg16_16 F48 gnd! 4.13777e-17
R16_18 149 159 0.153279 $l=0.094 $w=0.061 $lvl=35
R16_19 149 168 0.280392 $l=0.153 $w=0.051 $lvl=35
R16_20 149 F58 150 $a=0.001764 $lvl=56
R16_21 149 155 0.140984 $l=0.092 $w=0.061 $lvl=35
R16_22 159 150 0.0852459 $l=0.052 $w=0.061 $lvl=35
R16_23 159 F58 150 $a=0.001764 $lvl=56
R16_24 168 176 0.153279 $l=0.094 $w=0.061 $lvl=35
R16_25 168 F48 150 $a=0.001764 $lvl=56
R16_26 168 172 0.140984 $l=0.092 $w=0.061 $lvl=35
R16_27 176 169 0.0852459 $l=0.052 $w=0.061 $lvl=35
R16_28 176 F48 150 $a=0.001764 $lvl=56
R16_29 F58 155 150 $a=0.001764 $lvl=56
R16_30 F48 172 150 $a=0.001764 $lvl=56
R16_31 155 52 0.0934426 $l=0.057 $w=0.061 $lvl=35
R16_32 172 198 0.0934426 $l=0.057 $w=0.061 $lvl=35

*|NET net20 0.000186771PF
*|I (F46 MM3 SRC B 0 0.167 1.12) // $llx=0.167 $lly=1.12 $urx=0.167 $ury=1.12 $lvl=5
*|I (F52 MM1 DRN B 0 0.441 1.12) // $llx=0.441 $lly=1.12 $urx=0.441 $ury=1.12 $lvl=5
*|S (93 0.381 1.127) // $llx=0.351 $lly=1.098 $urx=0.412 $ury=1.156 $lvl=35
*|S (56 0.228 1.138) // $llx=0.198 $lly=1.105 $urx=0.259 $ury=1.172 $lvl=35
*|S (72 0.228 1.243) // $llx=0.198 $lly=1.222 $urx=0.259 $ury=1.264 $lvl=35
*|S (70 0.228 1.295) // $llx=0.198 $lly=1.295 $urx=0.259 $ury=1.295 $lvl=35
*|S (95 0.381 1.211) // $llx=0.351 $lly=1.19 $urx=0.412 $ury=1.232 $lvl=35
*|S (84 0.381 1.263) // $llx=0.351 $lly=1.263 $urx=0.412 $ury=1.263 $lvl=35
*|S (91 0.381 1.025) // $llx=0.351 $lly=1.004 $urx=0.412 $ury=1.046 $lvl=35
*|S (83 0.381 0.968) // $llx=0.351 $lly=0.968 $urx=0.412 $ury=0.968 $lvl=35
Cg15_17 56 gnd! 4.67317e-17
Cg15_18 84 gnd! 2.0866e-17
Cg15_19 F46 gnd! 4.3489e-17
Cg15_20 F52 gnd! 4.16356e-17
Cg15_21 83 gnd! 3.40483e-17
R15_33 93 56 0.279412 $l=0.153 $w=0.051 $lvl=35
R15_34 93 95 0.137705 $l=0.084 $w=0.061 $lvl=35
R15_35 93 F52 150 $a=0.001764 $lvl=56
R15_36 93 91 0.157377 $l=0.102 $w=0.061 $lvl=35
R15_37 56 72 0.166393 $l=0.105 $w=0.061 $lvl=35
R15_38 56 F46 150 $a=0.001764 $lvl=56
R15_39 72 70 0.0852459 $l=0.052 $w=0.061 $lvl=35
R15_40 72 F46 150 $a=0.001764 $lvl=56
R15_41 95 84 0.0852459 $l=0.052 $w=0.061 $lvl=35
R15_42 95 F52 150 $a=0.001764 $lvl=56
R15_43 F52 91 150 $a=0.001764 $lvl=56
R15_44 91 83 0.0934426 $l=0.057 $w=0.061 $lvl=35

*|NET ln_N_20 0.000193022PF
*|S (205 1.064 1.368) // $llx=1.064 $lly=1.34 $urx=1.064 $ury=1.396 $lvl=37
*|S (16 0 1.368) // $llx=0 $lly=1.34 $urx=0 $ury=1.396 $lvl=37
Cg18_22 16 gnd! 1.93022e-16
R18_45 205 16 1.9 $l=1.064 $w=0.056 $lvl=37

*|NET ln_N_9 0.000173359PF
*|S (215 1.064 1.47) // $llx=1.049 $lly=1.47 $urx=1.079 $ury=1.47 $lvl=30
*|S (204 1.064 0.05) // $llx=1.049 $lly=0.05 $urx=1.079 $ury=0.05 $lvl=30
Cg12_23 204 gnd! 1.73359e-16
R12_46 215 204 710 $l=1.42 $w=0.03 $lvl=30

*|NET ln_N_6 0.000206498PF
*|S (73 0.76 1.47) // $llx=0.745 $lly=1.47 $urx=0.775 $ury=1.47 $lvl=30
*|S (161 0.76 0.05) // $llx=0.745 $lly=0.05 $urx=0.775 $ury=0.05 $lvl=30
Cg9_24 161 gnd! 2.06498e-16
R9_47 73 161 710 $l=1.42 $w=0.03 $lvl=30

*|NET ln_N_8 0.000207012PF
*|S (76 0.304 1.47) // $llx=0.289 $lly=1.47 $urx=0.319 $ury=1.47 $lvl=30
*|S (74 0.304 0.05) // $llx=0.289 $lly=0.05 $urx=0.319 $ury=0.05 $lvl=30
Cg11_25 74 gnd! 2.07012e-16
R11_48 76 74 710 $l=1.42 $w=0.03 $lvl=30

*|NET ln_N_7 0.000175184PF
*|S (108 0 1.47) // $llx=-0.015 $lly=1.47 $urx=0.015 $ury=1.47 $lvl=30
*|S (6 0 0.05) // $llx=-0.015 $lly=0.05 $urx=0.015 $ury=0.05 $lvl=30
Cg10_26 6 gnd! 1.75184e-16
R10_49 108 6 710 $l=1.42 $w=0.03 $lvl=30

*|NET ln_N_19 0.000141908PF
*|S (177 1.064 1.52) // $llx=1.064 $lly=1.492 $urx=1.064 $ury=1.548 $lvl=37
*|S (17 0 1.52) // $llx=0 $lly=1.492 $urx=0 $ury=1.548 $lvl=37
Cg17_27 17 gnd! 1.41908e-16
R17_50 177 17 1.9 $l=1.064 $w=0.056 $lvl=37

*|NET ln_N_26 3.20983e-05PF
*|S (209 1.278 0.77) // $llx=-0.1 $lly=-0.08 $urx=2.656 $ury=1.62 $lvl=16
Cg24_28 209 gnd! 3.20983e-17

*|NET vcc! 0.000597154PF
*|I (F55 MM5 BULK B 0 0.608 1.12) // $llx=0.608 $lly=1.12 $urx=0.608 $ury=1.12 $lvl=2
*|I (F51 MM1 BULK B 0 0.456 1.12) // $llx=0.456 $lly=1.12 $urx=0.456 $ury=1.12 $lvl=2
*|I (F43 MM3 BULK B 0 0.152 1.12) // $llx=0.152 $lly=1.12 $urx=0.152 $ury=1.12 $lvl=2
*|I (F47 MM7 BULK B 0 0.912 1.12) // $llx=0.912 $lly=1.12 $urx=0.912 $ury=1.12 $lvl=2
*|P (vcc! B 0 0.313 1.519) // $llx=0.313 $lly=1.495 $urx=0.323 $ury=1.545 $lvl=72
*|I (F56 MM5 SRC B 0 0.593 1.12) // $llx=0.593 $lly=1.12 $urx=0.593 $ury=1.12 $lvl=5
*|I (F54 MM1 SRC B 0 0.471 1.12) // $llx=0.471 $lly=1.12 $urx=0.471 $ury=1.12 $lvl=5
*|S (214 1.719 1.175) // $llx=1.661 $lly=1.154 $urx=1.778 $ury=1.196 $lvl=35
*|S (213 1.719 1.52) // $llx=1.661 $lly=1.495 $urx=1.778 $ury=1.545 $lvl=35
*|S (111 0.53 1.52) // $llx=0.5 $lly=1.495 $urx=0.561 $ury=1.545 $lvl=35
*|S (18 0 1.52) // $llx=0 $lly=1.495 $urx=0 $ury=1.545 $lvl=35
*|S (144 0.53 0.981) // $llx=0.5 $lly=0.981 $urx=0.561 $ury=0.981 $lvl=35
*|S (130 0.53 1.025) // $llx=0.5 $lly=1.004 $urx=0.561 $ury=1.046 $lvl=35
*|S (132 0.53 1.119) // $llx=0.5 $lly=1.098 $urx=0.561 $ury=1.14 $lvl=35
*|S (134 0.53 1.211) // $llx=0.5 $lly=1.19 $urx=0.561 $ury=1.232 $lvl=35
*|S (206 1.761 1.156) // $llx=1.573 $lly=0.983 $urx=1.949 $ury=1.329 $lvl=6
*|S (160 1.719 1.085) // $llx=1.661 $lly=1.085 $urx=1.778 $ury=1.085 $lvl=35
*|S (F8 0.313 1.519) // $llx=0.313 $lly=1.495 $urx=0.323 $ury=1.545 $lvl=72
Rxvcc! vcc! F8 0.001
Cg5_29 F55 gnd! 3.45054e-16
Cg5_30 213 gnd! 1.73427e-17
Cg5_31 111 gnd! 7.75205e-17
Cg5_32 F8 gnd! 9.44156e-19
Cg5_33 18 gnd! 1.29832e-16
Cg5_34 206 gnd! 2.17253e-17
Cg5_35 F56 gnd! 4.73553e-18
R5_51 F55 F51 0.001 $l=0.152 $w=10 $lvl=2
R5_52 F55 F43 0.001 $l=0.456 $w=10 $lvl=2
R5_53 F55 F47 0.001 $l=0.304 $w=10 $lvl=2
R5_54 F55 206 7.68663e-06 $a=0.130096 $lvl=55
R5_55 214 213 0.282051 $l=0.345 $w=0.117 $lvl=35
R5_56 214 206 150 $a=0.001764 $lvl=56
R5_57 214 160 0.0769231 $l=0.09 $w=0.117 $lvl=35
R5_58 213 111 2.3 $l=1.189 $w=0.05 $lvl=35
R5_59 111 F8 0.414 $l=0.217 $w=0.05 $lvl=35
R5_60 111 134 0.498361 $l=0.309 $w=0.061 $lvl=35
R5_61 F8 18 0.636 $l=0.313 $w=0.05 $lvl=35
R5_62 144 130 0.0721311 $l=0.044 $w=0.061 $lvl=35
R5_63 130 132 0.154098 $l=0.094 $w=0.061 $lvl=35
R5_64 130 F56 150 $a=0.001764 $lvl=56
R5_65 132 134 0.15082 $l=0.092 $w=0.061 $lvl=35
R5_66 132 F56 150 $a=0.001764 $lvl=56
R5_67 134 F56 150 $a=0.001764 $lvl=56
R5_68 F56 F54 0.001 $l=0.122 $w=10 $lvl=5

*|NET gnd! 0.000969715PF
*|P (gnd! B 0 0.508 -0.023) // $llx=0.508 $lly=-0.025 $urx=0.558 $ury=0.031 $lvl=35
*|I (F39 MM4 BULK B 0 0.152 0.371) // $llx=0.152 $lly=0.371 $urx=0.152 $ury=0.371 $lvl=3
*|I (F31 MM2 BULK B 0 0.456 0.371) // $llx=0.456 $lly=0.371 $urx=0.456 $ury=0.371 $lvl=3
*|I (F35 MM6 BULK B 0 0.608 0.371) // $llx=0.608 $lly=0.371 $urx=0.608 $ury=0.371 $lvl=3
*|I (F27 MM0 BULK B 0 0.912 0.371) // $llx=0.912 $lly=0.371 $urx=0.912 $ury=0.371 $lvl=3
*|I (F36 MM6 SRC B 0 0.593 0.371) // $llx=0.593 $lly=0.371 $urx=0.593 $ury=0.371 $lvl=4
*|I (F34 MM2 SRC B 0 0.471 0.371) // $llx=0.471 $lly=0.371 $urx=0.471 $ury=0.371 $lvl=4
*|S (118 0 0) // $llx=0 $lly=-0.028 $urx=0 $ury=0.028 $lvl=37
*|S (7 0.393 0.001) // $llx=0.393 $lly=-0.028 $urx=0.393 $ury=0.031 $lvl=37
*|S (117 0.532 0.001) // $llx=0.507 $lly=-0.028 $urx=0.558 $ury=0.031 $lvl=37
*|S (98 0.68 0.001) // $llx=0.68 $lly=-0.028 $urx=0.68 $ury=0.031 $lvl=37
*|S (221 1.064 0) // $llx=1.064 $lly=-0.028 $urx=1.064 $ury=0.028 $lvl=37
*|S (123 0.532 0) // $llx=0.511 $lly=-0.021 $urx=0.553 $ury=0.021 $lvl=30
*|S (119 0 0.003) // $llx=0 $lly=-0.025 $urx=0 $ury=0.031 $lvl=35
*|S (216 1.773 0.003) // $llx=1.715 $lly=-0.025 $urx=1.832 $ury=0.031 $lvl=35
*|S (211 1.769 0.446) // $llx=1.573 $lly=0.296 $urx=1.965 $ury=0.596 $lvl=7
*|S (217 1.773 0.383) // $llx=1.715 $lly=0.362 $urx=1.832 $ury=0.404 $lvl=35
*|S (19 1.773 0.524) // $llx=1.715 $lly=0.524 $urx=1.832 $ury=0.524 $lvl=35
*|S (116 0.536 0.002) // $llx=0.392 $lly=-0.023 $urx=0.681 $ury=0.027 $lvl=39
*|S (97 0.536 0.032) // $llx=0.392 $lly=0.032 $urx=0.681 $ury=0.032 $lvl=39
*|S (120 0.532 0.305) // $llx=0.502 $lly=0.28 $urx=0.563 $ury=0.33 $lvl=39
*|S (113 0.532 0.501) // $llx=0.502 $lly=0.501 $urx=0.563 $ury=0.501 $lvl=39
*|S (222 0.536 -0.025) // $llx=0.392 $lly=-0.025 $urx=0.681 $ury=-0.025 $lvl=39
*|S (126 0.535 0.369) // $llx=0.478 $lly=0.348 $urx=0.593 $ury=0.39 $lvl=35
*|S (128 0.531 0.461) // $llx=0.502 $lly=0.44 $urx=0.561 $ury=0.482 $lvl=35
*|S (112 0.531 0.505) // $llx=0.502 $lly=0.505 $urx=0.561 $ury=0.505 $lvl=35
*|S (115 0.535 0.292) // $llx=0.478 $lly=0.254 $urx=0.593 $ury=0.33 $lvl=35
*|S (110 0.535 0.233) // $llx=0.478 $lly=0.233 $urx=0.593 $ury=0.233 $lvl=35
*|S (114 0.532 0.305) // $llx=0 $lly=0.28 $urx=1.064 $ury=0.33 $lvl=37
*|S (105 0.532 0.351) // $llx=0 $lly=0.332 $urx=1.064 $ury=0.371 $lvl=37
*|S (9 0.532 0.256) // $llx=0 $lly=0.237 $urx=1.064 $ury=0.276 $lvl=37
*|S (F7 0.508 -0.023) // $llx=0.508 $lly=-0.025 $urx=0.558 $ury=0.031 $lvl=35
Rxgnd! gnd! F7 0.001
Cg4_36 7 gnd! 7.21704e-17
Cg4_37 98 gnd! 2.82189e-17
Cg4_38 F7 gnd! 5.15292e-20
Cg4_39 216 gnd! 1.3232e-16
Cg4_40 F39 gnd! 4.02949e-16
Cg4_41 211 gnd! 1.97739e-17
Cg4_42 97 gnd! 1.20576e-17
Cg4_43 113 gnd! 2.63315e-17
Cg4_44 112 gnd! 2.78399e-17
Cg4_45 110 gnd! 4.97513e-17
Cg4_46 F36 gnd! 6.89235e-18
Cg4_47 105 gnd! 2.36654e-17
Cg4_48 9 gnd! 1.67693e-16
R4_69 118 7 0.701786 $l=0.393 $w=0.056 $lvl=37
R4_70 7 117 0.236441 $l=0.139 $w=0.059 $lvl=37
R4_71 117 98 0.25 $l=0.148 $w=0.059 $lvl=37
R4_72 117 F7 1 $a=0.0025 $lvl=58
R4_73 117 116 0.5 $a=0.0025 $lvl=59
R4_74 98 221 0.685714 $l=0.384 $w=0.056 $lvl=37
R4_75 F7 123 135 $a=0.001764 $lvl=57
R4_76 F7 119 0.951786 $l=0.508 $w=0.056 $lvl=35
R4_77 F7 216 2.16071 $l=1.265 $w=0.056 $lvl=35
R4_78 216 217 0.324786 $l=0.38 $w=0.117 $lvl=35
R4_79 F39 211 8.5034e-06 $a=0.1176 $lvl=54
R4_80 F39 F31 0.001 $l=0.304 $w=10 $lvl=3
R4_81 F39 F35 0.001 $l=0.456 $w=10 $lvl=3
R4_82 F39 F27 0.001 $l=0.76 $w=10 $lvl=3
R4_83 211 217 150 $a=0.001764 $lvl=56
R4_84 217 19 0.120513 $l=0.141 $w=0.117 $lvl=35
R4_85 116 97 0.0103806 $l=0.03 $w=0.289 $lvl=39
R4_86 116 222 0.00934256 $l=0.027 $w=0.289 $lvl=39
R4_87 97 120 0.447541 $l=0.273 $w=0.061 $lvl=39
R4_88 120 113 0.321311 $l=0.196 $w=0.061 $lvl=39
R4_89 120 114 0.5 $a=0.0025 $lvl=59
R4_90 126 128 0.155932 $l=0.092 $w=0.059 $lvl=35
R4_91 126 115 0.0669565 $l=0.077 $w=0.115 $lvl=35
R4_92 126 F36 150 $a=0.001764 $lvl=56
R4_93 128 112 0.0745763 $l=0.044 $w=0.059 $lvl=35
R4_94 128 F36 150 $a=0.001764 $lvl=56
R4_95 115 110 0.0513043 $l=0.059 $w=0.115 $lvl=35
R4_96 115 F36 150 $a=0.001764 $lvl=56
R4_97 115 114 1 $a=0.0025 $lvl=58
R4_98 F36 F34 0.001 $l=0.122 $w=10 $lvl=4
R4_99 114 105 0.00253759 $l=0.046 $w=1.064 $lvl=37
R4_100 114 9 0.00455827 $l=0.049 $w=1.064 $lvl=37

*|NET clkb 0.000177576PF
*|P (clkb B 0 0.891 0.132) // $llx=0.792 $lly=0.132 $urx=1.034 $ury=0.174 $lvl=35
*|I (F29 MM0 GATE I 9e-18 0.912 0.371) // $llx=0.912 $lly=0.371 $urx=0.912 $ury=0.371 $lvl=20
*|I (F49 MM7 GATE I 1.08e-17 0.912 1.12) // $llx=0.912 $lly=1.12 $urx=0.912 $ury=1.12 $lvl=21
*|S (162 0.913 0.127) // $llx=0.792 $lly=0.127 $urx=1.034 $ury=0.127 $lvl=35
*|S (225 0.913 0.178) // $llx=0.792 $lly=0.178 $urx=1.034 $ury=0.178 $lvl=35
*|S (179 0.912 0.153) // $llx=0.891 $lly=0.132 $urx=0.933 $ury=0.174 $lvl=30
*|S (23 0.912 1.47) // $llx=0.897 $lly=1.47 $urx=0.927 $ury=1.47 $lvl=30
*|S (180 0.912 0.05) // $llx=0.897 $lly=0.05 $urx=0.927 $ury=0.05 $lvl=30
*|S (F6 0.891 0.132) // $llx=0.792 $lly=0.132 $urx=1.034 $ury=0.174 $lvl=35
Rxclkb clkb F6 0.001
Cg3_49 162 gnd! 6.911e-17
Cg3_50 F6 gnd! 3.56371e-18
Cg3_51 F29 gnd! 5.1062e-18
Cg3_52 F49 gnd! 7.52728e-18
Cg3_53 180 gnd! 9.22692e-17
R3_101 162 F6 0.0107438 $l=0.005 $w=0.242 $lvl=35
R3_102 F6 225 0.0103306 $l=0.046 $w=0.242 $lvl=35
R3_103 F6 179 135 $a=0.001764 $lvl=57
R3_104 179 F29 31 $l=0.218 $w=0.03 $lvl=30
R3_105 179 180 48.5 $l=0.103 $w=0.03 $lvl=30
R3_106 F29 F49 209.5 $l=0.749 $w=0.03 $lvl=30
R3_107 F49 23 85 $l=0.35 $w=0.03 $lvl=30

*|NET net21 0.000326842PF
*|I (F32 MM2 DRN B 0 0.441 0.371) // $llx=0.441 $lly=0.371 $urx=0.441 $ury=0.371 $lvl=4
*|I (F30 MM0 SRC B 0 0.927 0.371) // $llx=0.927 $lly=0.371 $urx=0.927 $ury=0.371 $lvl=4
*|S (210 0.346 0.583) // $llx=0.346 $lly=0.558 $urx=0.346 $ury=0.609 $lvl=35
*|S (81 0.379 0.584) // $llx=0.349 $lly=0.558 $urx=0.41 $ury=0.61 $lvl=35
*|S (80 0.683 0.583) // $llx=0.653 $lly=0.558 $urx=0.714 $ury=0.609 $lvl=35
*|S (148 0.683 0.361) // $llx=0.653 $lly=0.336 $urx=0.714 $ury=0.387 $lvl=35
*|S (152 0.379 0.228) // $llx=0.349 $lly=0.228 $urx=0.41 $ury=0.228 $lvl=35
*|S (85 0.379 0.277) // $llx=0.349 $lly=0.256 $urx=0.41 $ury=0.298 $lvl=35
*|S (87 0.379 0.371) // $llx=0.349 $lly=0.35 $urx=0.41 $ury=0.392 $lvl=35
*|S (89 0.379 0.463) // $llx=0.349 $lly=0.442 $urx=0.41 $ury=0.484 $lvl=35
*|S (194 0.987 0.364) // $llx=0.957 $lly=0.336 $urx=1.018 $ury=0.392 $lvl=35
*|S (196 0.987 0.463) // $llx=0.957 $lly=0.442 $urx=1.018 $ury=0.484 $lvl=35
*|S (189 0.987 0.511) // $llx=0.957 $lly=0.511 $urx=1.018 $ury=0.511 $lvl=35
*|S (192 0.987 0.277) // $llx=0.957 $lly=0.256 $urx=1.018 $ury=0.298 $lvl=35
*|S (227 0.987 0.23) // $llx=0.957 $lly=0.23 $urx=1.018 $ury=0.23 $lvl=35
Cg14_54 81 gnd! 7.68443e-17
Cg14_55 80 gnd! 4.97652e-17
Cg14_56 148 gnd! 7.57817e-17
Cg14_57 194 gnd! 2.69147e-17
Cg14_58 189 gnd! 2.31884e-17
Cg14_59 F32 gnd! 3.74766e-17
Cg14_60 F30 gnd! 3.68713e-17
R14_108 210 81 0.0558824 $l=0.033 $w=0.051 $lvl=35
R14_109 81 80 0.576471 $l=0.304 $w=0.051 $lvl=35
R14_110 81 89 0.188525 $l=0.121 $w=0.061 $lvl=35
R14_111 80 148 0.354918 $l=0.222 $w=0.061 $lvl=35
R14_112 148 194 0.57549 $l=0.304 $w=0.051 $lvl=35
R14_113 152 85 0.0803279 $l=0.049 $w=0.061 $lvl=35
R14_114 85 87 0.154098 $l=0.094 $w=0.061 $lvl=35
R14_115 85 F32 150 $a=0.001764 $lvl=56
R14_116 87 89 0.15082 $l=0.092 $w=0.061 $lvl=35
R14_117 87 F32 150 $a=0.001764 $lvl=56
R14_118 89 F32 150 $a=0.001764 $lvl=56
R14_119 194 196 0.162295 $l=0.099 $w=0.061 $lvl=35
R14_120 194 F30 150 $a=0.001764 $lvl=56
R14_121 194 192 0.139344 $l=0.087 $w=0.061 $lvl=35
R14_122 196 189 0.0786885 $l=0.048 $w=0.061 $lvl=35
R14_123 196 F30 150 $a=0.001764 $lvl=56
R14_124 F30 192 150 $a=0.001764 $lvl=56
R14_125 192 227 0.0770492 $l=0.047 $w=0.061 $lvl=35

*|NET D 0.000169959PF
*|P (D B 0 0.435 0.742) // $llx=0.435 $lly=0.737 $urx=0.477 $ury=0.788 $lvl=35
*|I (F33 MM2 GATE I 9e-18 0.456 0.371) // $llx=0.456 $lly=0.371 $urx=0.456 $ury=0.371 $lvl=20
*|I (F53 MM1 GATE I 1.08e-17 0.456 1.12) // $llx=0.456 $lly=1.12 $urx=0.456 $ury=1.12 $lvl=21
*|S (75 0.335 0.762) // $llx=0.335 $lly=0.737 $urx=0.335 $ury=0.788 $lvl=35
*|S (5 0.577 0.762) // $llx=0.577 $lly=0.737 $urx=0.577 $ury=0.788 $lvl=35
*|S (101 0.456 0.05) // $llx=0.441 $lly=0.05 $urx=0.471 $ury=0.05 $lvl=30
*|S (100 0.456 0.763) // $llx=0.435 $lly=0.742 $urx=0.477 $ury=0.784 $lvl=30
*|S (96 0.456 1.47) // $llx=0.441 $lly=1.47 $urx=0.471 $ury=1.47 $lvl=30
*|S (F3 0.435 0.742) // $llx=0.435 $lly=0.737 $urx=0.477 $ury=0.788 $lvl=35
RxD D F3 0.001
Cg2_61 75 gnd! 6.18727e-17
Cg2_62 F3 gnd! 3.47459e-18
Cg2_63 101 gnd! 9.12557e-17
Cg2_64 F33 gnd! 6.15318e-18
Cg2_65 F53 gnd! 7.20296e-18
R2_126 75 F3 0.237255 $l=0.1 $w=0.051 $lvl=35
R2_127 F3 5 0.237255 $l=0.142 $w=0.051 $lvl=35
R2_128 F3 100 135 $a=0.001764 $lvl=57
R2_129 101 F33 85.5 $l=0.321 $w=0.03 $lvl=30
R2_130 F33 100 118 $l=0.392 $w=0.03 $lvl=30
R2_131 100 F53 85.5 $l=0.357 $w=0.03 $lvl=30
R2_132 F53 96 85 $l=0.35 $w=0.03 $lvl=30

*|NET net8 0.000462914PF
*|I (F37 MM6 GATE I 9e-18 0.608 0.371) // $llx=0.608 $lly=0.371 $urx=0.608 $ury=0.371 $lvl=20
*|I (F57 MM5 GATE I 1.08e-17 0.608 1.12) // $llx=0.608 $lly=1.12 $urx=0.608 $ury=1.12 $lvl=21
*|I (F44 MM3 DRN B 0 0.137 1.12) // $llx=0.137 $lly=1.12 $urx=0.137 $ury=1.12 $lvl=5
*|I (F28 MM0 DRN B 0 0.897 0.371) // $llx=0.897 $lly=0.371 $urx=0.897 $ury=0.371 $lvl=4
*|S (36 0.075 1.025) // $llx=0.045 $lly=1.004 $urx=0.106 $ury=1.046 $lvl=35
*|S (53 0.075 0.891) // $llx=0.045 $lly=0.865 $urx=0.106 $ury=0.918 $lvl=35
*|S (136 0.556 0.881) // $llx=0.556 $lly=0.844 $urx=0.556 $ury=0.918 $lvl=35
*|S (137 0.608 0.881) // $llx=0.587 $lly=0.844 $urx=0.629 $ury=0.918 $lvl=35
*|S (170 0.837 0.49) // $llx=0.805 $lly=0.469 $urx=0.869 $ury=0.511 $lvl=35
*|S (167 0.837 0.892) // $llx=0.805 $lly=0.867 $urx=0.869 $ury=0.918 $lvl=35
*|S (29 0.665 0.881) // $llx=0.665 $lly=0.844 $urx=0.665 $ury=0.918 $lvl=35
*|S (139 0.608 0.05) // $llx=0.593 $lly=0.05 $urx=0.623 $ury=0.05 $lvl=30
*|S (138 0.608 0.879) // $llx=0.587 $lly=0.858 $urx=0.629 $ury=0.9 $lvl=30
*|S (49 0.608 1.47) // $llx=0.593 $lly=1.47 $urx=0.623 $ury=1.47 $lvl=30
*|S (38 0.075 1.119) // $llx=0.045 $lly=1.098 $urx=0.106 $ury=1.14 $lvl=35
*|S (40 0.075 1.211) // $llx=0.045 $lly=1.19 $urx=0.106 $ury=1.232 $lvl=35
*|S (27 0.075 1.302) // $llx=0.045 $lly=1.302 $urx=0.106 $ury=1.302 $lvl=35
*|S (218 0.837 0.437) // $llx=0.805 $lly=0.437 $urx=0.869 $ury=0.437 $lvl=35
Cg8_66 53 gnd! 6.609e-17
Cg8_67 136 gnd! 1.77927e-17
Cg8_68 167 gnd! 7.76646e-17
Cg8_69 29 gnd! 1.16487e-16
Cg8_70 139 gnd! 8.85829e-17
Cg8_71 F37 gnd! 5.77905e-18
Cg8_72 F57 gnd! 7.25601e-18
Cg8_73 F44 gnd! 4.17452e-17
Cg8_74 F28 gnd! 4.1517e-17
R8_133 36 53 0.218852 $l=0.134 $w=0.061 $lvl=35
R8_134 36 38 0.154098 $l=0.094 $w=0.061 $lvl=35
R8_135 36 F44 150 $a=0.001764 $lvl=56
R8_136 53 136 0.931373 $l=0.481 $w=0.051 $lvl=35
R8_137 136 137 0.0702703 $l=0.052 $w=0.074 $lvl=35
R8_138 137 29 0.077027 $l=0.057 $w=0.074 $lvl=35
R8_139 137 138 135 $a=0.001764 $lvl=57
R8_140 170 167 0.61875 $l=0.402 $w=0.064 $lvl=35
R8_141 170 218 0.0828125 $l=0.053 $w=0.064 $lvl=35
R8_142 170 F28 150 $a=0.001764 $lvl=56
R8_143 167 29 0.32451 $l=0.172 $w=0.051 $lvl=35
R8_144 139 F37 85.5 $l=0.321 $w=0.03 $lvl=30
R8_145 F37 138 176 $l=0.508 $w=0.03 $lvl=30
R8_146 138 F57 27.5 $l=0.241 $w=0.03 $lvl=30
R8_147 F57 49 85 $l=0.35 $w=0.03 $lvl=30
R8_148 38 40 0.15082 $l=0.092 $w=0.061 $lvl=35
R8_149 38 F44 150 $a=0.001764 $lvl=56
R8_150 40 27 0.14918 $l=0.091 $w=0.061 $lvl=35
R8_151 40 F44 150 $a=0.001764 $lvl=56

*|NET Q 0.000715247PF
*|P (Q B 0 0.961 1.004) // $llx=0.956 $lly=1.004 $urx=1.017 $ury=1.073 $lvl=35
*|I (F50 MM7 DRN B 0 0.927 1.12) // $llx=0.927 $lly=1.12 $urx=0.927 $ury=1.12 $lvl=5
*|I (F42 MM4 DRN B 0 0.167 0.371) // $llx=0.167 $lly=0.371 $urx=0.167 $ury=0.371 $lvl=4
*|S (190 0.986 1.056) // $llx=0.961 $lly=1.02 $urx=1.011 $ury=1.092 $lvl=37
*|S (187 0.986 0.722) // $llx=0.956 $lly=0.722 $urx=1.017 $ury=0.722 $lvl=35
*|S (200 0.986 1.119) // $llx=0.956 $lly=1.098 $urx=1.017 $ury=1.14 $lvl=35
*|S (202 0.986 1.211) // $llx=0.956 $lly=1.19 $urx=1.017 $ury=1.232 $lvl=35
*|S (41 0.986 1.263) // $llx=0.956 $lly=1.263 $urx=1.017 $ury=1.263 $lvl=35
*|S (58 0.532 0.475) // $llx=0 $lly=0.435 $urx=1.064 $ury=0.515 $lvl=37
*|S (60 0.227 0.46) // $llx=0.197 $lly=0.435 $urx=0.257 $ury=0.485 $lvl=39
*|S (55 0.227 0.404) // $llx=0.197 $lly=0.404 $urx=0.257 $ury=0.404 $lvl=39
*|S (62 0.227 1.048) // $llx=0.197 $lly=1.023 $urx=0.257 $ury=1.073 $lvl=39
*|S (35 0.227 1.104) // $llx=0.197 $lly=1.104 $urx=0.257 $ury=1.104 $lvl=39
*|S (63 0.23 1.056) // $llx=0.205 $lly=1.02 $urx=0.255 $ury=1.092 $lvl=37
*|S (14 1.052 1.056) // $llx=1.041 $lly=1.02 $urx=1.064 $ury=1.092 $lvl=37
*|S (51 0.167 1.056) // $llx=0.167 $lly=1.02 $urx=0.167 $ury=1.092 $lvl=37
*|S (61 0 1.064) // $llx=0 $lly=1.036 $urx=0 $ury=1.092 $lvl=37
*|S (10 0.532 0.408) // $llx=0 $lly=0.389 $urx=1.064 $ury=0.428 $lvl=37
*|S (54 0.227 0.231) // $llx=0.197 $lly=0.231 $urx=0.257 $ury=0.231 $lvl=35
*|S (64 0.227 0.277) // $llx=0.197 $lly=0.256 $urx=0.257 $ury=0.298 $lvl=35
*|S (66 0.227 0.371) // $llx=0.197 $lly=0.35 $urx=0.257 $ury=0.392 $lvl=35
*|S (59 0.227 0.46) // $llx=0.197 $lly=0.435 $urx=0.257 $ury=0.485 $lvl=35
*|S (68 0.227 0.515) // $llx=0.197 $lly=0.515 $urx=0.257 $ury=0.515 $lvl=35
*|S (F4 0.961 1.004) // $llx=0.956 $lly=1.004 $urx=1.017 $ury=1.073 $lvl=35
RxQ Q F4 0.001
Cg6_75 F4 gnd! 1.84234e-18
Cg6_76 187 gnd! 8.72963e-17
Cg6_77 F50 gnd! 4.15153e-17
Cg6_78 58 gnd! 1.87514e-17
Cg6_79 55 gnd! 6.15691e-17
Cg6_80 14 gnd! 1.1633e-16
Cg6_81 51 gnd! 8.9408e-17
Cg6_82 10 gnd! 1.88474e-16
Cg6_83 54 gnd! 7.19726e-17
Cg6_84 F42 gnd! 3.80876e-17
R6_152 F4 190 1 $a=0.0025 $lvl=58
R6_153 F4 187 0.512295 $l=0.282 $w=0.061 $lvl=35
R6_154 F4 200 0.12541 $l=0.115 $w=0.061 $lvl=35
R6_155 F4 F50 150 $a=0.001764 $lvl=56
R6_156 190 63 1.05 $l=0.756 $w=0.072 $lvl=37
R6_157 190 14 0.0885324 $l=0.066 $w=0.072 $lvl=37
R6_158 200 202 0.15082 $l=0.092 $w=0.061 $lvl=35
R6_159 200 F50 150 $a=0.001764 $lvl=56
R6_160 202 41 0.0852459 $l=0.052 $w=0.061 $lvl=35
R6_161 202 F50 150 $a=0.001764 $lvl=56
R6_162 58 60 0.5 $a=0.0025 $lvl=59
R6_163 58 10 0.00484023 $l=0.067 $w=1.064 $lvl=37
R6_164 58 59 1 $a=0.0025 $lvl=58
R6_165 60 55 0.0933333 $l=0.056 $w=0.06 $lvl=39
R6_166 60 62 0.98 $l=0.588 $w=0.06 $lvl=39
R6_167 62 35 0.0933333 $l=0.056 $w=0.06 $lvl=39
R6_168 62 63 0.5 $a=0.0025 $lvl=59
R6_169 63 51 0.0875 $l=0.063 $w=0.072 $lvl=37
R6_170 51 61 0.298214 $l=0.167 $w=0.056 $lvl=37
R6_171 54 64 0.0766667 $l=0.046 $w=0.06 $lvl=35
R6_172 64 66 0.156667 $l=0.094 $w=0.06 $lvl=35
R6_173 64 F42 150 $a=0.001764 $lvl=56
R6_174 66 59 0.148333 $l=0.089 $w=0.06 $lvl=35
R6_175 66 F42 150 $a=0.001764 $lvl=56
R6_176 59 68 0.0916667 $l=0.055 $w=0.06 $lvl=35
R6_177 59 F42 150 $a=0.001764 $lvl=56

*|NET clk 0.000183207PF
*|P (clk B 0 0.131 1.347) // $llx=0.031 $lly=1.347 $urx=0.273 $ury=1.389 $lvl=35
*|I (F41 MM4 GATE I 9e-18 0.152 0.371) // $llx=0.152 $lly=0.371 $urx=0.152 $ury=0.371 $lvl=20
*|I (F45 MM3 GATE I 1.08e-17 0.152 1.12) // $llx=0.152 $lly=1.12 $urx=0.152 $ury=1.12 $lvl=21
*|S (20 0.152 1.342) // $llx=0.031 $lly=1.342 $urx=0.273 $ury=1.342 $lvl=35
*|S (57 0.152 1.393) // $llx=0.031 $lly=1.393 $urx=0.273 $ury=1.393 $lvl=35
*|S (44 0.152 0.05) // $llx=0.137 $lly=0.05 $urx=0.167 $ury=0.05 $lvl=30
*|S (43 0.152 1.368) // $llx=0.131 $lly=1.347 $urx=0.173 $ury=1.389 $lvl=30
*|S (135 0.152 1.47) // $llx=0.137 $lly=1.47 $urx=0.167 $ury=1.47 $lvl=30
*|S (F5 0.131 1.347) // $llx=0.031 $lly=1.347 $urx=0.273 $ury=1.389 $lvl=35
Rxclk clk F5 0.001
Cg1_85 20 gnd! 7.39921e-17
Cg1_86 F5 gnd! 3.11506e-18
Cg1_87 44 gnd! 9.22545e-17
Cg1_88 F41 gnd! 6.51197e-18
Cg1_89 F45 gnd! 7.33319e-18
R1_178 20 F5 0.0107438 $l=0.005 $w=0.242 $lvl=35
R1_179 F5 57 0.0103306 $l=0.046 $w=0.242 $lvl=35
R1_180 F5 43 135 $a=0.001764 $lvl=57
R1_181 44 F41 85.5 $l=0.321 $w=0.03 $lvl=30
R1_182 F41 F45 209.5 $l=0.749 $w=0.03 $lvl=30
R1_183 F45 43 31 $l=0.248 $w=0.03 $lvl=30
R1_184 43 135 48 $l=0.102 $w=0.03 $lvl=30

*
* Instance Section
*
MMM0 F28 F29 F30 F27 n105 ad=0.031p as=0.03p l=0.03u pd=0.804u ps=0.802u w=0.3u
MMM1 F52 F53 F54 F51 p105 ad=0.037p as=0.022p l=0.03u pd=0.924u ps=0.482u w=0.36u
MMM2 F32 F33 F34 F31 n105 ad=0.03p as=0.018p l=0.03u pd=0.802u ps=0.422u w=0.3u
MMM3 F44 F45 F46 F43 p105 ad=0.037p as=0.037p l=0.03u pd=0.924u ps=0.924u w=0.36u
MMM4 F42 F41 F40 F39 n105 ad=0.03p as=0.031p l=0.03u pd=0.802u ps=0.804u w=0.3u
MMM5 F58 F57 F56 F55 p105 ad=0.037p as=0.022p l=0.03u pd=0.924u ps=0.482u w=0.36u
MMM6 F38 F37 F36 F35 n105 ad=0.031p as=0.018p l=0.03u pd=0.804u ps=0.422u w=0.3u
MMM7 F50 F49 F48 F47 p105 ad=0.037p as=0.037p l=0.03u pd=0.924u ps=0.924u w=0.36u

.ENDS

