*
*|DSPF 1.3
*|DESIGN onbit
*|DATE "Sun Nov 20 13:57:59 2016"
*|VENDOR "Synopsys"
*|PROGRAM "StarRC"
*|VERSION "K-2015.06-SP1"
*|DIVIDER |
*|DELIMITER :
**FORMAT STAR
*

** COMMENTS

** OPERATING_TEMPERATURE 25
** GLOBAL_TEMPERATURE 25
** TCAD_GRD_FILE /afs/asu.edu/users/a/p/a/aparame2/425_lab/iPDK/starrc/nominal/saed32nm_1p9m_nominal.nxtgrd
**   TCAD_TIME_STAMP Wed Mar 16 14:34:54 2011
**   TCADGRD_VERSION 72


.SUBCKT onbit B A Ci gnd! Coutbar Sumbar vcc!

*|GROUND_NET gnd!

*LAYER_MAP

*0 SUBSTRATE
*1 psub
*2 nwnr
*3 pwell
*4 nsd
*5 psd
*6 ntap
*7 ptap
*8 psdr
*9 nsdr
*10 1_0V_BJT_BASE
*11 1_0V_BJT_COLL
*12 1_0V_BJT_EMIT
*13 1_0V_BJT_COLL_NPN
*14 1_0V_BJT_EMIT_NPN
*15 1_0V_BJT_BASE_NPN
*16 subtie_scon
*17 subtie
*18 pdores
*19 ndores
*20 ngate_105
*21 pgate_105
*22 ngate_25
*23 pgate_25
*24 ngate_18
*25 pgate_18
*26 ngate_105_lvt
*27 pgate_105_lvt
*28 ngate_105_hvt
*29 pgate_105_hvt
*30 ponr
*31 ppores
*32 npores
*33 ppores_sblk
*34 npores_sblk
*35 m1
*36 m1res
*37 m2
*38 m2res
*39 m3
*40 m3res
*41 m4
*42 m4res
*43 m5
*44 m5res
*45 m6
*46 m6res
*47 m7
*48 m7res
*49 m8
*50 m8res
*51 m9
*52 m9res
*53 mrdl
*54 pwell_cont
*55 nwell_cont
*56 codiff
*57 copoly
*58 via1
*59 via2
*60 via3
*61 via4
*62 via5
*63 via6
*64 via7
*65 via8
*66 viardl
*67 1_0V_BJT_BASE_cont_NPN
*68 1_0V_BJT_BASE_cont
*69 1_0V_BJT_COLL_cont
*70 1_0V_BJT_EMIT_cont
*71 1_0V_BJT_COLL_cont_NPN
*72 m1pin_marker
*73 m2pin_marker
*74 m3pin_marker
*75 m4pin_marker
*76 m5pin_marker
*77 m6pin_marker
*78 m7pin_marker
*79 m8pin_marker
*80 m9pin_marker


*|NET ln_N_56 0.000296567PF
*|S (349 2.455 0) // $llx=2.455 $lly=-0.028 $urx=2.455 $ury=0.028 $lvl=37
*|S (7 0 0) // $llx=0 $lly=-0.028 $urx=0 $ury=0.028 $lvl=37
Cg41_1 7 gnd! 2.96567e-16
R41_1 349 7 4.38393 $l=2.455 $w=0.056 $lvl=37

*|NET ln_N_55 0.000415549PF
*|S (351 2.455 0.152) // $llx=2.455 $lly=0.124 $urx=2.455 $ury=0.18 $lvl=37
*|S (8 0 0.152) // $llx=0 $lly=0.124 $urx=0 $ury=0.18 $lvl=37
Cg40_2 8 gnd! 4.15549e-16
R40_2 351 8 4.38393 $l=2.455 $w=0.056 $lvl=37

*|NET ln_N_40 0PF
*|S (284 2.052 0.253) // $llx=1.991 $lly=0.153 $urx=2.113 $ury=0.353 $lvl=9

*|NET ln_N_39 0PF
*|S (275 1.9 0.253) // $llx=1.839 $lly=0.153 $urx=1.961 $ury=0.353 $lvl=9

*|NET ln_N_38 0PF
*|S (120 0.684 0.253) // $llx=0.623 $lly=0.153 $urx=0.745 $ury=0.353 $lvl=9

*|NET net42 1.82718e-05PF
*|I (F85 MM28 DRN B 0 2.113 0.253) // $llx=2.113 $lly=0.253 $urx=2.113 $ury=0.253 $lvl=4
*|I (F81 MM29 SRC B 0 1.991 0.253) // $llx=1.991 $lly=0.253 $urx=1.991 $ury=0.253 $lvl=4
Cg20_3 F81 gnd! 1.82718e-17
R20_3 F85 F81 0.001 $l=0.122 $w=10 $lvl=4

*|NET net41 1.82718e-05PF
*|I (F83 MM29 DRN B 0 1.961 0.253) // $llx=1.961 $lly=0.253 $urx=1.961 $ury=0.253 $lvl=4
*|I (F77 MM33 SRC B 0 1.839 0.253) // $llx=1.839 $lly=0.253 $urx=1.839 $ury=0.253 $lvl=4
Cg19_4 F77 gnd! 1.82718e-17
R19_4 F83 F77 0.001 $l=0.122 $w=10 $lvl=4

*|NET net43 2.15763e-05PF
*|I (F95 MM17 DRN B 0 0.745 0.253) // $llx=0.745 $lly=0.253 $urx=0.745 $ury=0.253 $lvl=4
*|I (F49 MM16 SRC B 0 0.623 0.253) // $llx=0.623 $lly=0.253 $urx=0.623 $ury=0.253 $lvl=4
Cg18_5 F49 gnd! 2.15763e-17
R18_5 F95 F49 0.001 $l=0.122 $w=10 $lvl=4

*|NET ln_N_54 0.000413325PF
*|S (76 2.455 0.304) // $llx=2.455 $lly=0.276 $urx=2.455 $ury=0.332 $lvl=37
*|S (9 0 0.304) // $llx=0 $lly=0.276 $urx=0 $ury=0.332 $lvl=37
Cg39_6 9 gnd! 4.13325e-16
R39_6 76 9 4.38393 $l=2.455 $w=0.056 $lvl=37

*|NET net12 0.000319808PF
*|I (F47 MM4 SRC B 0 0.441 0.253) // $llx=0.441 $lly=0.253 $urx=0.441 $ury=0.253 $lvl=4
*|I (F59 MM5 DRN B 0 1.049 0.253) // $llx=1.049 $lly=0.253 $urx=1.049 $ury=0.253 $lvl=4
*|I (F53 MM12 DRN B 0 0.927 0.253) // $llx=0.927 $lly=0.253 $urx=0.927 $ury=0.253 $lvl=4
*|S (123 0.673 0.399) // $llx=0.644 $lly=0.374 $urx=0.703 $ury=0.424 $lvl=35
*|S (158 0.983 0.399) // $llx=0.954 $lly=0.374 $urx=1.013 $ury=0.424 $lvl=35
*|S (350 0.674 0.1) // $llx=0.644 $lly=0.075 $urx=0.705 $ury=0.125 $lvl=35
*|S (24 0.643 0.399) // $llx=0.643 $lly=0.374 $urx=0.643 $ury=0.424 $lvl=35
*|S (81 0.379 0.1) // $llx=0.35 $lly=0.075 $urx=0.409 $ury=0.125 $lvl=35
*|S (98 0.983 0.165) // $llx=0.954 $lly=0.165 $urx=1.013 $ury=0.165 $lvl=35
*|S (160 0.983 0.211) // $llx=0.954 $lly=0.19 $urx=1.013 $ury=0.232 $lvl=35
*|S (162 0.983 0.303) // $llx=0.954 $lly=0.282 $urx=1.013 $ury=0.324 $lvl=35
*|S (84 0.379 0.19) // $llx=0.35 $lly=0.169 $urx=0.409 $ury=0.211 $lvl=35
*|S (86 0.379 0.282) // $llx=0.35 $lly=0.261 $urx=0.409 $ury=0.303 $lvl=35
*|S (83 0.379 0.324) // $llx=0.35 $lly=0.324 $urx=0.409 $ury=0.324 $lvl=35
Cg17_7 123 gnd! 7.92919e-17
Cg17_8 158 gnd! 4.43174e-17
Cg17_9 350 gnd! 2.83138e-17
Cg17_10 81 gnd! 1.23842e-16
Cg17_11 F47 gnd! 2.84056e-17
Cg17_12 F59 gnd! 1.56378e-17
R17_7 123 158 0.602 $l=0.31 $w=0.05 $lvl=35
R17_8 123 350 0.5 $l=0.299 $w=0.059 $lvl=35
R17_9 123 24 0.052 $l=0.03 $w=0.05 $lvl=35
R17_10 158 162 0.155932 $l=0.096 $w=0.059 $lvl=35
R17_11 350 81 0.57 $l=0.295 $w=0.05 $lvl=35
R17_12 81 84 0.152542 $l=0.09 $w=0.059 $lvl=35
R17_13 98 160 0.0779661 $l=0.046 $w=0.059 $lvl=35
R17_14 160 162 0.155932 $l=0.092 $w=0.059 $lvl=35
R17_15 160 F59 150 $a=0.001764 $lvl=56
R17_16 162 F59 150 $a=0.001764 $lvl=56
R17_17 84 86 0.155932 $l=0.092 $w=0.059 $lvl=35
R17_18 84 F47 150 $a=0.001764 $lvl=56
R17_19 86 83 0.0711864 $l=0.042 $w=0.059 $lvl=35
R17_20 86 F47 150 $a=0.001764 $lvl=56
R17_21 F59 F53 0.001 $l=0.122 $w=10 $lvl=4

*|NET net27 0.000198804PF
*|I (F67 MM19 DRN B 0 1.353 0.253) // $llx=1.353 $lly=0.253 $urx=1.353 $ury=0.253 $lvl=4
*|I (F61 MM20 DRN B 0 1.231 0.253) // $llx=1.231 $lly=0.253 $urx=1.231 $ury=0.253 $lvl=4
*|I (F75 MM24 SRC B 0 1.657 0.253) // $llx=1.657 $lly=0.253 $urx=1.657 $ury=0.253 $lvl=4
*|I (F69 MM18 DRN B 0 1.535 0.253) // $llx=1.535 $lly=0.253 $urx=1.535 $ury=0.253 $lvl=4
*|S (196 1.29 0.402) // $llx=1.261 $lly=0.377 $urx=1.32 $ury=0.427 $lvl=35
*|S (237 1.592 0.402) // $llx=1.563 $lly=0.377 $urx=1.622 $ury=0.427 $lvl=35
*|S (199 1.623 0.402) // $llx=1.623 $lly=0.377 $urx=1.623 $ury=0.427 $lvl=35
*|S (126 1.592 0.165) // $llx=1.563 $lly=0.165 $urx=1.622 $ury=0.165 $lvl=35
*|S (239 1.592 0.209) // $llx=1.563 $lly=0.188 $urx=1.622 $ury=0.23 $lvl=35
*|S (241 1.592 0.302) // $llx=1.563 $lly=0.281 $urx=1.622 $ury=0.323 $lvl=35
*|S (119 1.29 0.15) // $llx=1.261 $lly=0.15 $urx=1.32 $ury=0.15 $lvl=35
*|S (201 1.29 0.191) // $llx=1.261 $lly=0.17 $urx=1.32 $ury=0.212 $lvl=35
*|S (203 1.29 0.283) // $llx=1.261 $lly=0.262 $urx=1.32 $ury=0.304 $lvl=35
Cg16_13 196 gnd! 4.73876e-17
Cg16_14 237 gnd! 4.05144e-17
Cg16_15 199 gnd! 7.98074e-17
Cg16_16 F67 gnd! 1.54817e-17
Cg16_17 F75 gnd! 1.56125e-17
R16_22 196 237 0.586 $l=0.302 $w=0.05 $lvl=35
R16_23 196 203 0.194915 $l=0.119 $w=0.059 $lvl=35
R16_24 237 199 0.052 $l=0.031 $w=0.05 $lvl=35
R16_25 237 241 0.162712 $l=0.1 $w=0.059 $lvl=35
R16_26 126 239 0.0745763 $l=0.044 $w=0.059 $lvl=35
R16_27 239 241 0.157627 $l=0.093 $w=0.059 $lvl=35
R16_28 239 F75 150 $a=0.001764 $lvl=56
R16_29 241 F75 150 $a=0.001764 $lvl=56
R16_30 119 201 0.0694915 $l=0.041 $w=0.059 $lvl=35
R16_31 201 203 0.155932 $l=0.092 $w=0.059 $lvl=35
R16_32 201 F67 150 $a=0.001764 $lvl=56
R16_33 203 F67 150 $a=0.001764 $lvl=56
R16_34 F67 F61 0.001 $l=0.122 $w=10 $lvl=4
R16_35 F75 F69 0.001 $l=0.122 $w=10 $lvl=4

*|NET ln_N_53 0.000418368PF
*|S (50 2.455 0.456) // $llx=2.455 $lly=0.428 $urx=2.455 $ury=0.484 $lvl=37
*|S (10 0 0.456) // $llx=0 $lly=0.428 $urx=0 $ury=0.484 $lvl=37
Cg38_18 10 gnd! 4.18368e-16
R38_36 50 10 4.38393 $l=2.455 $w=0.056 $lvl=37

*|NET ln_N_52 0.000410293PF
*|S (31 2.455 0.608) // $llx=2.455 $lly=0.58 $urx=2.455 $ury=0.636 $lvl=37
*|S (11 0 0.608) // $llx=0 $lly=0.58 $urx=0 $ury=0.636 $lvl=37
Cg37_19 11 gnd! 4.10293e-16
R37_37 31 11 4.38393 $l=2.455 $w=0.056 $lvl=37

*|NET ln_N_51 0.000411037PF
*|S (42 2.455 0.76) // $llx=2.455 $lly=0.732 $urx=2.455 $ury=0.788 $lvl=37
*|S (12 0 0.76) // $llx=0 $lly=0.732 $urx=0 $ury=0.788 $lvl=37
Cg36_20 12 gnd! 4.11037e-16
R36_38 42 12 4.38393 $l=2.455 $w=0.056 $lvl=37

*|NET ln_N_50 0.000411431PF
*|S (33 2.455 0.912) // $llx=2.455 $lly=0.884 $urx=2.455 $ury=0.94 $lvl=37
*|S (13 0 0.912) // $llx=0 $lly=0.884 $urx=0 $ury=0.94 $lvl=37
Cg35_21 13 gnd! 4.11431e-16
R35_39 33 13 4.38393 $l=2.455 $w=0.056 $lvl=37

*|NET ln_N_49 0.000415711PF
*|S (310 2.455 1.064) // $llx=2.455 $lly=1.036 $urx=2.455 $ury=1.092 $lvl=37
*|S (14 0 1.064) // $llx=0 $lly=1.036 $urx=0 $ury=1.092 $lvl=37
Cg34_22 14 gnd! 4.15711e-16
R34_40 310 14 4.38393 $l=2.455 $w=0.056 $lvl=37

*|NET ln_N_48 0.000411727PF
*|S (124 2.455 1.216) // $llx=2.455 $lly=1.188 $urx=2.455 $ury=1.244 $lvl=37
*|S (15 0 1.216) // $llx=0 $lly=1.188 $urx=0 $ury=1.244 $lvl=37
Cg33_23 15 gnd! 4.11727e-16
R33_41 124 15 4.38393 $l=2.455 $w=0.056 $lvl=37

*|NET ln_N_43 0PF
*|S (286 2.052 1.189) // $llx=1.991 $lly=1.069 $urx=2.113 $ury=1.309 $lvl=8

*|NET ln_N_42 0PF
*|S (277 1.9 1.189) // $llx=1.839 $lly=1.069 $urx=1.961 $ury=1.309 $lvl=8

*|NET ln_N_41 0PF
*|S (122 0.684 1.189) // $llx=0.623 $lly=1.069 $urx=0.745 $ury=1.309 $lvl=8

*|NET net39 2.08474e-05PF
*|I (F145 MM30 DRN B 0 2.113 1.189) // $llx=2.113 $lly=1.189 $urx=2.113 $ury=1.189 $lvl=5
*|I (F141 MM31 SRC B 0 1.991 1.189) // $llx=1.991 $lly=1.189 $urx=1.991 $ury=1.189 $lvl=5
Cg23_24 F141 gnd! 2.08474e-17
R23_42 F145 F141 0.001 $l=0.122 $w=10 $lvl=5

*|NET net40 2.09343e-05PF
*|I (F143 MM31 DRN B 0 1.961 1.189) // $llx=1.961 $lly=1.189 $urx=1.961 $ury=1.189 $lvl=5
*|I (F137 MM32 SRC B 0 1.839 1.189) // $llx=1.839 $lly=1.189 $urx=1.839 $ury=1.189 $lvl=5
Cg22_25 F137 gnd! 2.09343e-17
R22_43 F143 F137 0.001 $l=0.122 $w=10 $lvl=5

*|NET net44 2.33672e-05PF
*|I (F155 MM15 DRN B 0 0.745 1.189) // $llx=0.745 $lly=1.189 $urx=0.745 $ury=1.189 $lvl=5
*|I (F109 MM14 SRC B 0 0.623 1.189) // $llx=0.623 $lly=1.189 $urx=0.623 $ury=1.189 $lvl=5
Cg21_26 F109 gnd! 2.33672e-17
R21_44 F155 F109 0.001 $l=0.122 $w=10 $lvl=5

*|NET ln_N_47 0.000412321PF
*|S (128 2.455 1.368) // $llx=2.455 $lly=1.34 $urx=2.455 $ury=1.396 $lvl=37
*|S (16 0 1.368) // $llx=0 $lly=1.34 $urx=0 $ury=1.396 $lvl=37
Cg32_27 16 gnd! 4.12321e-16
R32_45 128 16 4.38393 $l=2.455 $w=0.056 $lvl=37

*|NET ln_N_18 0.000170635PF
*|S (26 2.432 1.47) // $llx=2.417 $lly=1.47 $urx=2.447 $ury=1.47 $lvl=30
*|S (333 2.432 0.05) // $llx=2.417 $lly=0.05 $urx=2.447 $ury=0.05 $lvl=30
Cg13_28 333 gnd! 1.70635e-16
R13_46 26 333 710 $l=1.42 $w=0.03 $lvl=30

*|NET B 0.000738714PF
*|I (F94 MM17 GATE I 6e-18 0.76 0.253) // $llx=0.76 $lly=0.253 $urx=0.76 $ury=0.253 $lvl=20
*|I (F154 MM15 GATE I 7.2e-18 0.76 1.189) // $llx=0.76 $lly=1.189 $urx=0.76 $ury=1.189 $lvl=21
*|I (F54 MM12 GATE I 6e-18 0.912 0.253) // $llx=0.912 $lly=0.253 $urx=0.912 $ury=0.253 $lvl=20
*|I (F114 MM13 GATE I 7.2e-18 0.912 1.189) // $llx=0.912 $lly=1.189 $urx=0.912 $ury=1.189 $lvl=21
*|I (F66 MM19 GATE I 6e-18 1.368 0.253) // $llx=1.368 $lly=0.253 $urx=1.368 $ury=0.253 $lvl=20
*|I (F126 MM22 GATE I 7.2e-18 1.368 1.189) // $llx=1.368 $lly=1.189 $urx=1.368 $ury=1.189 $lvl=21
*|I (F82 MM29 GATE I 6e-18 1.976 0.253) // $llx=1.976 $lly=0.253 $urx=1.976 $ury=0.253 $lvl=20
*|I (F142 MM31 GATE I 7.2e-18 1.976 1.189) // $llx=1.976 $lly=1.189 $urx=1.976 $ury=1.189 $lvl=21
*|P (B B 0 0.977 0.903) // $llx=0.977 $lly=0.886 $urx=0.987 $ury=0.946 $lvl=72
*|S (132 0.76 0.05) // $llx=0.745 $lly=0.05 $urx=0.775 $ury=0.05 $lvl=30
*|S (131 0.76 0.915) // $llx=0.739 $lly=0.894 $urx=0.781 $ury=0.936 $lvl=30
*|S (67 0.76 1.47) // $llx=0.745 $lly=1.47 $urx=0.775 $ury=1.47 $lvl=30
*|S (151 0.912 0.05) // $llx=0.897 $lly=0.05 $urx=0.927 $ury=0.05 $lvl=30
*|S (150 0.912 0.915) // $llx=0.891 $lly=0.894 $urx=0.933 $ury=0.936 $lvl=30
*|S (65 0.912 1.47) // $llx=0.897 $lly=1.47 $urx=0.927 $ury=1.47 $lvl=30
*|S (149 0.912 0.916) // $llx=0.891 $lly=0.886 $urx=0.933 $ury=0.946 $lvl=35
*|S (211 1.368 0.05) // $llx=1.353 $lly=0.05 $urx=1.383 $ury=0.05 $lvl=30
*|S (210 1.368 0.915) // $llx=1.347 $lly=0.894 $urx=1.389 $ury=0.936 $lvl=30
*|S (49 1.368 1.47) // $llx=1.353 $lly=1.47 $urx=1.383 $ury=1.47 $lvl=30
*|S (280 1.976 0.05) // $llx=1.961 $lly=0.05 $urx=1.991 $ury=0.05 $lvl=30
*|S (279 1.976 0.915) // $llx=1.955 $lly=0.894 $urx=1.997 $ury=0.936 $lvl=30
*|S (27 1.976 1.47) // $llx=1.961 $lly=1.47 $urx=1.991 $ury=1.47 $lvl=30
*|S (278 1.976 0.916) // $llx=1.955 $lly=0.886 $urx=1.997 $ury=0.946 $lvl=35
*|S (209 1.368 0.916) // $llx=1.347 $lly=0.886 $urx=1.389 $ury=0.946 $lvl=35
*|S (74 2.017 0.916) // $llx=2.017 $lly=0.886 $urx=2.017 $ury=0.946 $lvl=35
*|S (130 0.76 0.916) // $llx=0.739 $lly=0.886 $urx=0.781 $ury=0.946 $lvl=35
*|S (129 0.718 0.916) // $llx=0.718 $lly=0.886 $urx=0.718 $ury=0.946 $lvl=35
*|S (F4 0.977 0.903) // $llx=0.977 $lly=0.886 $urx=0.987 $ury=0.946 $lvl=72
RxB B F4 0.001
Cg1_29 132 gnd! 9.66473e-17
Cg1_30 F94 gnd! 4.52954e-18
Cg1_31 F154 gnd! 5.36589e-18
Cg1_32 151 gnd! 9.45311e-17
Cg1_33 F54 gnd! 4.42775e-18
Cg1_34 F114 gnd! 5.19649e-18
Cg1_35 211 gnd! 1.20375e-16
Cg1_36 F66 gnd! 4.45147e-18
Cg1_37 F126 gnd! 5.23428e-18
Cg1_38 280 gnd! 1.16763e-16
Cg1_39 F82 gnd! 3.02747e-18
Cg1_40 F142 gnd! 3.45047e-18
Cg1_41 F4 gnd! 4.91549e-19
Cg1_42 129 gnd! 2.74224e-16
R1_47 132 F94 51.5 $l=0.203 $w=0.03 $lvl=30
R1_48 F94 131 278 $l=0.662 $w=0.03 $lvl=30
R1_49 131 F154 74 $l=0.274 $w=0.03 $lvl=30
R1_50 131 130 135 $a=0.001764 $lvl=57
R1_51 F154 67 80.5 $l=0.281 $w=0.03 $lvl=30
R1_52 151 F54 51.5 $l=0.203 $w=0.03 $lvl=30
R1_53 F54 150 278 $l=0.662 $w=0.03 $lvl=30
R1_54 150 F114 74 $l=0.274 $w=0.03 $lvl=30
R1_55 150 149 135 $a=0.001764 $lvl=57
R1_56 F114 65 80.5 $l=0.281 $w=0.03 $lvl=30
R1_57 149 130 0.253333 $l=0.152 $w=0.06 $lvl=35
R1_58 149 F4 0.116667 $l=0.065 $w=0.06 $lvl=35
R1_59 211 F66 51.5 $l=0.203 $w=0.03 $lvl=30
R1_60 F66 210 278 $l=0.662 $w=0.03 $lvl=30
R1_61 210 F126 74 $l=0.274 $w=0.03 $lvl=30
R1_62 210 209 135 $a=0.001764 $lvl=57
R1_63 F126 49 80.5 $l=0.281 $w=0.03 $lvl=30
R1_64 280 F82 51.5 $l=0.203 $w=0.03 $lvl=30
R1_65 F82 279 278 $l=0.662 $w=0.03 $lvl=30
R1_66 279 F142 74 $l=0.274 $w=0.03 $lvl=30
R1_67 279 278 135 $a=0.001764 $lvl=57
R1_68 F142 27 80.5 $l=0.281 $w=0.03 $lvl=30
R1_69 278 209 1.01333 $l=0.608 $w=0.06 $lvl=35
R1_70 278 74 0.0683333 $l=0.041 $w=0.06 $lvl=35
R1_71 209 F4 0.643333 $l=0.391 $w=0.06 $lvl=35
R1_72 130 129 0.07 $l=0.042 $w=0.06 $lvl=35

*|NET A 0.000783794PF
*|I (F50 MM16 GATE I 6e-18 0.608 0.253) // $llx=0.608 $lly=0.253 $urx=0.608 $ury=0.253 $lvl=20
*|I (F110 MM14 GATE I 7.2e-18 0.608 1.189) // $llx=0.608 $lly=1.189 $urx=0.608 $ury=1.189 $lvl=21
*|I (F58 MM5 GATE I 6e-18 1.064 0.253) // $llx=1.064 $lly=0.253 $urx=1.064 $ury=0.253 $lvl=20
*|I (F118 MM1 GATE I 7.2e-18 1.064 1.189) // $llx=1.064 $lly=1.189 $urx=1.064 $ury=1.189 $lvl=21
*|I (F70 MM18 GATE I 6e-18 1.52 0.253) // $llx=1.52 $lly=0.253 $urx=1.52 $ury=0.253 $lvl=20
*|I (F130 MM21 GATE I 7.2e-18 1.52 1.189) // $llx=1.52 $lly=1.189 $urx=1.52 $ury=1.189 $lvl=21
*|I (F86 MM28 GATE I 6e-18 2.128 0.253) // $llx=2.128 $lly=0.253 $urx=2.128 $ury=0.253 $lvl=20
*|I (F146 MM30 GATE I 7.2e-18 2.128 1.189) // $llx=2.128 $lly=1.189 $urx=2.128 $ury=1.189 $lvl=21
*|P (A B 0 1.149 0.76) // $llx=1.149 $lly=0.729 $urx=1.159 $ury=0.789 $lvl=72
*|S (116 0.608 0.05) // $llx=0.593 $lly=0.05 $urx=0.623 $ury=0.05 $lvl=30
*|S (115 0.608 0.761) // $llx=0.587 $lly=0.74 $urx=0.629 $ury=0.782 $lvl=30
*|S (320 0.608 1.47) // $llx=0.593 $lly=1.47 $urx=0.623 $ury=1.47 $lvl=30
*|S (170 1.064 0.05) // $llx=1.049 $lly=0.05 $urx=1.079 $ury=0.05 $lvl=30
*|S (169 1.064 0.761) // $llx=1.043 $lly=0.74 $urx=1.085 $ury=0.782 $lvl=30
*|S (63 1.064 1.47) // $llx=1.049 $lly=1.47 $urx=1.079 $ury=1.47 $lvl=30
*|S (168 1.064 0.759) // $llx=1.043 $lly=0.729 $urx=1.085 $ury=0.789 $lvl=35
*|S (230 1.52 0.05) // $llx=1.505 $lly=0.05 $urx=1.535 $ury=0.05 $lvl=30
*|S (229 1.52 0.761) // $llx=1.499 $lly=0.74 $urx=1.541 $ury=0.782 $lvl=30
*|S (39 1.52 1.47) // $llx=1.505 $lly=1.47 $urx=1.535 $ury=1.47 $lvl=30
*|S (289 2.128 0.05) // $llx=2.113 $lly=0.05 $urx=2.143 $ury=0.05 $lvl=30
*|S (288 2.128 0.761) // $llx=2.107 $lly=0.74 $urx=2.149 $ury=0.782 $lvl=30
*|S (52 2.128 1.47) // $llx=2.113 $lly=1.47 $urx=2.143 $ury=1.47 $lvl=30
*|S (287 2.128 0.759) // $llx=2.107 $lly=0.729 $urx=2.149 $ury=0.789 $lvl=35
*|S (228 1.52 0.759) // $llx=1.499 $lly=0.729 $urx=1.541 $ury=0.789 $lvl=35
*|S (71 2.17 0.759) // $llx=2.17 $lly=0.729 $urx=2.17 $ury=0.789 $lvl=35
*|S (114 0.608 0.759) // $llx=0.587 $lly=0.729 $urx=0.629 $ury=0.789 $lvl=35
*|S (113 0.564 0.759) // $llx=0.564 $lly=0.729 $urx=0.564 $ury=0.789 $lvl=35
*|S (F3 1.149 0.76) // $llx=1.149 $lly=0.729 $urx=1.159 $ury=0.789 $lvl=72
RxA A F3 0.001
Cg2_43 116 gnd! 1.1865e-16
Cg2_44 F50 gnd! 4.19324e-18
Cg2_45 F110 gnd! 4.92482e-18
Cg2_46 170 gnd! 1.18596e-16
Cg2_47 F58 gnd! 4.78022e-18
Cg2_48 F118 gnd! 5.60222e-18
Cg2_49 230 gnd! 1.20546e-16
Cg2_50 F70 gnd! 4.49738e-18
Cg2_51 F130 gnd! 5.12719e-18
Cg2_52 289 gnd! 1.15888e-16
Cg2_53 F86 gnd! 4.55829e-18
Cg2_54 F146 gnd! 5.32172e-18
Cg2_55 F3 gnd! 5.96851e-19
Cg2_56 113 gnd! 2.70514e-16
R2_73 116 F50 51.5 $l=0.203 $w=0.03 $lvl=30
R2_74 F50 115 201 $l=0.508 $w=0.03 $lvl=30
R2_75 115 F110 151 $l=0.428 $w=0.03 $lvl=30
R2_76 115 114 135 $a=0.001764 $lvl=57
R2_77 F110 320 80.5 $l=0.281 $w=0.03 $lvl=30
R2_78 170 F58 51.5 $l=0.203 $w=0.03 $lvl=30
R2_79 F58 169 201 $l=0.508 $w=0.03 $lvl=30
R2_80 169 F118 151 $l=0.428 $w=0.03 $lvl=30
R2_81 169 168 135 $a=0.001764 $lvl=57
R2_82 F118 63 80.5 $l=0.281 $w=0.03 $lvl=30
R2_83 168 114 0.76 $l=0.456 $w=0.06 $lvl=35
R2_84 168 F3 0.15 $l=0.085 $w=0.06 $lvl=35
R2_85 230 F70 51.5 $l=0.203 $w=0.03 $lvl=30
R2_86 F70 229 201 $l=0.508 $w=0.03 $lvl=30
R2_87 229 F130 151 $l=0.428 $w=0.03 $lvl=30
R2_88 229 228 135 $a=0.001764 $lvl=57
R2_89 F130 39 80.5 $l=0.281 $w=0.03 $lvl=30
R2_90 289 F86 51.5 $l=0.203 $w=0.03 $lvl=30
R2_91 F86 288 201 $l=0.508 $w=0.03 $lvl=30
R2_92 288 F146 151 $l=0.428 $w=0.03 $lvl=30
R2_93 288 287 135 $a=0.001764 $lvl=57
R2_94 F146 52 80.5 $l=0.281 $w=0.03 $lvl=30
R2_95 287 228 1.01333 $l=0.608 $w=0.06 $lvl=35
R2_96 287 71 0.07 $l=0.042 $w=0.06 $lvl=35
R2_97 228 F3 0.61 $l=0.371 $w=0.06 $lvl=35
R2_98 114 113 0.0733333 $l=0.044 $w=0.06 $lvl=35

*|NET Ci 0.000693953PF
*|I (F46 MM4 GATE I 6e-18 0.456 0.253) // $llx=0.456 $lly=0.253 $urx=0.456 $ury=0.253 $lvl=20
*|I (F106 MM2 GATE I 7.2e-18 0.456 1.189) // $llx=0.456 $lly=1.189 $urx=0.456 $ury=1.189 $lvl=21
*|I (F62 MM20 GATE I 6e-18 1.216 0.253) // $llx=1.216 $lly=0.253 $urx=1.216 $ury=0.253 $lvl=20
*|I (F122 MM23 GATE I 7.2e-18 1.216 1.189) // $llx=1.216 $lly=1.189 $urx=1.216 $ury=1.189 $lvl=21
*|I (F78 MM33 GATE I 6e-18 1.824 0.253) // $llx=1.824 $lly=0.253 $urx=1.824 $ury=0.253 $lvl=20
*|I (F138 MM32 GATE I 7.2e-18 1.824 1.189) // $llx=1.824 $lly=1.189 $urx=1.824 $ury=1.189 $lvl=21
*|P (Ci B 0 0.529 0.606) // $llx=0.529 $lly=0.58 $urx=0.539 $ury=0.64 $lvl=72
*|S (95 0.456 0.05) // $llx=0.441 $lly=0.05 $urx=0.471 $ury=0.05 $lvl=30
*|S (94 0.456 0.605) // $llx=0.435 $lly=0.584 $urx=0.477 $ury=0.626 $lvl=30
*|S (321 0.456 1.47) // $llx=0.441 $lly=1.47 $urx=0.471 $ury=1.47 $lvl=30
*|S (93 0.456 0.61) // $llx=0.435 $lly=0.58 $urx=0.477 $ury=0.64 $lvl=35
*|S (189 1.216 0.05) // $llx=1.201 $lly=0.05 $urx=1.231 $ury=0.05 $lvl=30
*|S (188 1.216 0.607) // $llx=1.195 $lly=0.586 $urx=1.237 $ury=0.628 $lvl=30
*|S (53 1.216 1.47) // $llx=1.201 $lly=1.47 $urx=1.231 $ury=1.47 $lvl=30
*|S (271 1.824 0.05) // $llx=1.809 $lly=0.05 $urx=1.839 $ury=0.05 $lvl=30
*|S (270 1.824 0.607) // $llx=1.803 $lly=0.586 $urx=1.845 $ury=0.628 $lvl=30
*|S (35 1.824 1.47) // $llx=1.809 $lly=1.47 $urx=1.839 $ury=1.47 $lvl=30
*|S (269 1.824 0.61) // $llx=1.803 $lly=0.58 $urx=1.845 $ury=0.64 $lvl=35
*|S (92 0.413 0.61) // $llx=0.413 $lly=0.58 $urx=0.413 $ury=0.64 $lvl=35
*|S (187 1.216 0.61) // $llx=1.195 $lly=0.58 $urx=1.237 $ury=0.64 $lvl=35
*|S (29 1.865 0.61) // $llx=1.865 $lly=0.58 $urx=1.865 $ury=0.64 $lvl=35
*|S (F5 0.529 0.606) // $llx=0.529 $lly=0.58 $urx=0.539 $ury=0.64 $lvl=72
RxCi Ci F5 0.001
Cg3_57 95 gnd! 1.16945e-16
Cg3_58 F46 gnd! 4.47158e-18
Cg3_59 F106 gnd! 5.19881e-18
Cg3_60 189 gnd! 1.20091e-16
Cg3_61 F62 gnd! 4.82487e-18
Cg3_62 F122 gnd! 5.42597e-18
Cg3_63 271 gnd! 1.199e-16
Cg3_64 F78 gnd! 4.68883e-18
Cg3_65 F138 gnd! 5.60532e-18
Cg3_66 92 gnd! 3.06414e-16
Cg3_67 F5 gnd! 3.8637e-19
R3_99 95 F46 51.5 $l=0.203 $w=0.03 $lvl=30
R3_100 F46 94 123 $l=0.352 $w=0.03 $lvl=30
R3_101 94 F106 229 $l=0.584 $w=0.03 $lvl=30
R3_102 94 93 135 $a=0.001764 $lvl=57
R3_103 F106 321 80.5 $l=0.281 $w=0.03 $lvl=30
R3_104 93 92 0.0716667 $l=0.043 $w=0.06 $lvl=35
R3_105 93 F5 0.13 $l=0.073 $w=0.06 $lvl=35
R3_106 189 F62 51.5 $l=0.203 $w=0.03 $lvl=30
R3_107 F62 188 124 $l=0.354 $w=0.03 $lvl=30
R3_108 188 F122 228 $l=0.582 $w=0.03 $lvl=30
R3_109 188 187 135 $a=0.001764 $lvl=57
R3_110 F122 53 80.5 $l=0.281 $w=0.03 $lvl=30
R3_111 271 F78 51.5 $l=0.203 $w=0.03 $lvl=30
R3_112 F78 270 124 $l=0.354 $w=0.03 $lvl=30
R3_113 270 F138 228 $l=0.582 $w=0.03 $lvl=30
R3_114 270 269 135 $a=0.001764 $lvl=57
R3_115 F138 35 80.5 $l=0.281 $w=0.03 $lvl=30
R3_116 269 187 1.01333 $l=0.608 $w=0.06 $lvl=35
R3_117 269 29 0.0683333 $l=0.041 $w=0.06 $lvl=35
R3_118 187 F5 1.13667 $l=0.687 $w=0.06 $lvl=35

*|NET ln_N_17 0.000198161PF
*|S (91 0.304 1.47) // $llx=0.289 $lly=1.47 $urx=0.319 $ury=1.47 $lvl=30
*|S (70 0.304 0.05) // $llx=0.289 $lly=0.05 $urx=0.319 $ury=0.05 $lvl=30
Cg12_68 70 gnd! 1.98161e-16
R12_119 91 70 710 $l=1.42 $w=0.03 $lvl=30

*|NET ln_N_16 0.000177646PF
*|S (112 0 1.47) // $llx=-0.015 $lly=1.47 $urx=0.015 $ury=1.47 $lvl=30
*|S (6 0 0.05) // $llx=-0.015 $lly=0.05 $urx=0.015 $ury=0.05 $lvl=30
Cg11_69 6 gnd! 1.77646e-16
R11_120 112 6 710 $l=1.42 $w=0.03 $lvl=30

*|NET ln_N_46 0.000296258PF
*|S (156 2.455 1.52) // $llx=2.455 $lly=1.492 $urx=2.455 $ury=1.548 $lvl=37
*|S (17 0 1.52) // $llx=0 $lly=1.492 $urx=0 $ury=1.548 $lvl=37
Cg31_70 17 gnd! 2.96258e-16
R31_121 156 17 4.38393 $l=2.455 $w=0.056 $lvl=37

*|NET ln_N_44 5.68831e-05PF
*|S (338 1.563 0.315) // $llx=-0.1 $lly=-0.08 $urx=3.226 $ury=0.711 $lvl=16
Cg30_71 338 gnd! 5.68831e-17

*|NET vcc! 0.00118548PF
*|I (F152 MM15 BULK B 0 0.76 1.189) // $llx=0.76 $lly=1.189 $urx=0.76 $ury=1.189 $lvl=2
*|I (F124 MM22 BULK B 0 1.368 1.189) // $llx=1.368 $lly=1.189 $urx=1.368 $ury=1.189 $lvl=2
*|I (F128 MM21 BULK B 0 1.52 1.189) // $llx=1.52 $lly=1.189 $urx=1.52 $ury=1.189 $lvl=2
*|I (F132 MM25 BULK B 0 1.672 1.189) // $llx=1.672 $lly=1.189 $urx=1.672 $ury=1.189 $lvl=2
*|I (F136 MM32 BULK B 0 1.824 1.189) // $llx=1.824 $lly=1.189 $urx=1.824 $ury=1.189 $lvl=2
*|I (F140 MM31 BULK B 0 1.976 1.189) // $llx=1.976 $lly=1.189 $urx=1.976 $ury=1.189 $lvl=2
*|I (F144 MM30 BULK B 0 2.128 1.189) // $llx=2.128 $lly=1.189 $urx=2.128 $ury=1.189 $lvl=2
*|I (F148 MM6 BULK B 0 2.28 1.189) // $llx=2.28 $lly=1.189 $urx=2.28 $ury=1.189 $lvl=2
*|I (F100 MM9 BULK B 0 0.152 1.199) // $llx=0.152 $lly=1.199 $urx=0.152 $ury=1.199 $lvl=2
*|I (F104 MM2 BULK B 0 0.456 1.189) // $llx=0.456 $lly=1.189 $urx=0.456 $ury=1.189 $lvl=2
*|I (F108 MM14 BULK B 0 0.608 1.189) // $llx=0.608 $lly=1.189 $urx=0.608 $ury=1.189 $lvl=2
*|I (F112 MM13 BULK B 0 0.912 1.189) // $llx=0.912 $lly=1.189 $urx=0.912 $ury=1.189 $lvl=2
*|I (F116 MM1 BULK B 0 1.064 1.189) // $llx=1.064 $lly=1.189 $urx=1.064 $ury=1.189 $lvl=2
*|I (F120 MM23 BULK B 0 1.216 1.189) // $llx=1.216 $lly=1.189 $urx=1.216 $ury=1.189 $lvl=2
*|P (vcc! B 0 0.33 1.503) // $llx=0.33 $lly=1.495 $urx=0.34 $ury=1.545 $lvl=72
*|I (F103 MM9 SRC B 0 0.167 1.199) // $llx=0.167 $lly=1.199 $urx=0.167 $ury=1.199 $lvl=5
*|I (F153 MM15 SRC B 0 0.775 1.189) // $llx=0.775 $lly=1.189 $urx=0.775 $ury=1.189 $lvl=5
*|I (F115 MM13 SRC B 0 0.897 1.189) // $llx=0.897 $lly=1.189 $urx=0.897 $ury=1.189 $lvl=5
*|I (F123 MM23 SRC B 0 1.201 1.189) // $llx=1.201 $lly=1.189 $urx=1.201 $ury=1.189 $lvl=5
*|I (F117 MM1 SRC B 0 1.079 1.189) // $llx=1.079 $lly=1.189 $urx=1.079 $ury=1.189 $lvl=5
*|I (F131 MM21 SRC B 0 1.505 1.189) // $llx=1.505 $lly=1.189 $urx=1.505 $ury=1.189 $lvl=5
*|I (F125 MM22 SRC B 0 1.383 1.189) // $llx=1.383 $lly=1.189 $urx=1.383 $ury=1.189 $lvl=5
*|I (F149 MM6 SRC B 0 2.265 1.189) // $llx=2.265 $lly=1.189 $urx=2.265 $ury=1.189 $lvl=5
*|I (F147 MM30 SRC B 0 2.143 1.189) // $llx=2.143 $lly=1.189 $urx=2.143 $ury=1.189 $lvl=5
*|S (219 1.443 1.52) // $llx=1.414 $lly=1.495 $urx=1.473 $ury=1.545 $lvl=35
*|S (298 2.203 1.52) // $llx=2.174 $lly=1.495 $urx=2.233 $ury=1.545 $lvl=35
*|S (342 2.898 1.52) // $llx=2.873 $lly=1.495 $urx=2.923 $ury=1.545 $lvl=35
*|S (178 1.141 1.52) // $llx=1.112 $lly=1.495 $urx=1.171 $ury=1.545 $lvl=35
*|S (140 0.835 1.52) // $llx=0.806 $lly=1.495 $urx=0.865 $ury=1.545 $lvl=35
*|S (18 0 1.52) // $llx=0 $lly=1.495 $urx=0 $ury=1.545 $lvl=35
*|S (55 0.23 1.52) // $llx=0.201 $lly=1.495 $urx=0.26 $ury=1.545 $lvl=35
*|S (346 2.898 1.122) // $llx=2.873 $lly=1.101 $urx=2.923 $ury=1.143 $lvl=35
*|S (167 0.23 1.017) // $llx=0.201 $lly=1.017 $urx=0.26 $ury=1.017 $lvl=35
*|S (62 0.23 1.058) // $llx=0.201 $lly=1.037 $urx=0.26 $ury=1.079 $lvl=35
*|S (64 0.23 1.15) // $llx=0.201 $lly=1.129 $urx=0.26 $ury=1.171 $lvl=35
*|S (66 0.23 1.242) // $llx=0.201 $lly=1.221 $urx=0.26 $ury=1.263 $lvl=35
*|S (68 0.23 1.335) // $llx=0.201 $lly=1.314 $urx=0.26 $ury=1.356 $lvl=35
*|S (137 0.835 1.112) // $llx=0.806 $lly=1.112 $urx=0.865 $ury=1.112 $lvl=35
*|S (145 0.835 1.177) // $llx=0.806 $lly=1.156 $urx=0.865 $ury=1.198 $lvl=35
*|S (147 0.835 1.271) // $llx=0.806 $lly=1.25 $urx=0.865 $ury=1.292 $lvl=35
*|S (148 1.141 1.089) // $llx=1.112 $lly=1.089 $urx=1.171 $ury=1.089 $lvl=35
*|S (183 1.141 1.176) // $llx=1.112 $lly=1.155 $urx=1.171 $ury=1.197 $lvl=35
*|S (185 1.141 1.27) // $llx=1.112 $lly=1.249 $urx=1.171 $ury=1.291 $lvl=35
*|S (121 1.443 1.106) // $llx=1.414 $lly=1.106 $urx=1.473 $ury=1.106 $lvl=35
*|S (224 1.443 1.173) // $llx=1.414 $lly=1.152 $urx=1.473 $ury=1.194 $lvl=35
*|S (226 1.443 1.271) // $llx=1.414 $lly=1.25 $urx=1.473 $ury=1.292 $lvl=35
*|S (100 2.203 1.106) // $llx=2.174 $lly=1.106 $urx=2.233 $ury=1.106 $lvl=35
*|S (303 2.203 1.174) // $llx=2.174 $lly=1.153 $urx=2.233 $ury=1.195 $lvl=35
*|S (305 2.203 1.271) // $llx=2.174 $lly=1.25 $urx=2.233 $ury=1.292 $lvl=35
*|S (335 2.891 1.103) // $llx=2.703 $lly=0.93 $urx=3.079 $ury=1.276 $lvl=6
*|S (334 2.898 1.067) // $llx=2.873 $lly=1.067 $urx=2.923 $ury=1.067 $lvl=35
*|S (F9 0.33 1.503) // $llx=0.33 $lly=1.495 $urx=0.34 $ury=1.545 $lvl=72
Rxvcc! vcc! F9 0.001
Cg7_72 F152 gnd! 5.76617e-16
Cg7_73 219 gnd! 5.72378e-17
Cg7_74 298 gnd! 5.46222e-17
Cg7_75 342 gnd! 1.82575e-17
Cg7_76 178 gnd! 5.75446e-17
Cg7_77 140 gnd! 5.92674e-17
Cg7_78 18 gnd! 2.08263e-16
Cg7_79 55 gnd! 8.36605e-17
Cg7_80 F9 gnd! 5.84357e-19
Cg7_81 335 gnd! 2.71139e-17
Cg7_82 F103 gnd! 2.60928e-17
Cg7_83 F153 gnd! 4.25716e-18
Cg7_84 F123 gnd! 3.56919e-18
Cg7_85 F131 gnd! 4.21224e-18
Cg7_86 F149 gnd! 4.18248e-18
R7_122 F152 F120 0.001 $l=0.456 $w=10 $lvl=2
R7_123 F152 F116 0.001 $l=0.304 $w=10 $lvl=2
R7_124 F152 F112 0.001 $l=0.152 $w=10 $lvl=2
R7_125 F152 F108 0.001 $l=0.152 $w=10 $lvl=2
R7_126 F152 335 7.68663e-06 $a=0.130096 $lvl=55
R7_127 F152 F104 0.001 $l=0.304 $w=10 $lvl=2
R7_128 F152 F100 0.001 $l=0.608 $w=10 $lvl=2
R7_129 F152 F148 0.001 $l=1.52 $w=10 $lvl=2
R7_130 F152 F144 0.001 $l=1.368 $w=10 $lvl=2
R7_131 F152 F140 0.001 $l=1.216 $w=10 $lvl=2
R7_132 F152 F136 0.001 $l=1.064 $w=10 $lvl=2
R7_133 F152 F132 0.001 $l=0.912 $w=10 $lvl=2
R7_134 F152 F128 0.001 $l=0.76 $w=10 $lvl=2
R7_135 F152 F124 0.001 $l=0.608 $w=10 $lvl=2
R7_136 219 298 1.502 $l=0.76 $w=0.05 $lvl=35
R7_137 219 178 0.586 $l=0.302 $w=0.05 $lvl=35
R7_138 219 226 0.415254 $l=0.249 $w=0.059 $lvl=35
R7_139 298 342 1.38 $l=0.695 $w=0.05 $lvl=35
R7_140 298 305 0.415254 $l=0.249 $w=0.059 $lvl=35
R7_141 342 346 0.796 $l=0.398 $w=0.05 $lvl=35
R7_142 178 140 0.594 $l=0.306 $w=0.05 $lvl=35
R7_143 178 185 0.416949 $l=0.25 $w=0.059 $lvl=35
R7_144 140 F9 0.992 $l=0.505 $w=0.05 $lvl=35
R7_145 140 147 0.415254 $l=0.249 $w=0.059 $lvl=35
R7_146 18 55 0.452 $l=0.23 $w=0.05 $lvl=35
R7_147 55 F9 0.2 $l=0.1 $w=0.05 $lvl=35
R7_148 55 68 0.30678 $l=0.185 $w=0.059 $lvl=35
R7_149 346 335 150 $a=0.001764 $lvl=56
R7_150 346 334 0.11 $l=0.055 $w=0.05 $lvl=35
R7_151 167 62 0.0694915 $l=0.041 $w=0.059 $lvl=35
R7_152 62 64 0.155932 $l=0.092 $w=0.059 $lvl=35
R7_153 62 F103 150 $a=0.001764 $lvl=56
R7_154 64 66 0.155932 $l=0.092 $w=0.059 $lvl=35
R7_155 64 F103 150 $a=0.001764 $lvl=56
R7_156 66 68 0.157627 $l=0.093 $w=0.059 $lvl=35
R7_157 66 F103 150 $a=0.001764 $lvl=56
R7_158 68 F103 150 $a=0.001764 $lvl=56
R7_159 137 145 0.110169 $l=0.065 $w=0.059 $lvl=35
R7_160 145 147 0.159322 $l=0.094 $w=0.059 $lvl=35
R7_161 145 F153 150 $a=0.001764 $lvl=56
R7_162 147 F153 150 $a=0.001764 $lvl=56
R7_163 148 183 0.147458 $l=0.087 $w=0.059 $lvl=35
R7_164 183 185 0.159322 $l=0.094 $w=0.059 $lvl=35
R7_165 183 F123 150 $a=0.001764 $lvl=56
R7_166 185 F123 150 $a=0.001764 $lvl=56
R7_167 121 224 0.113559 $l=0.067 $w=0.059 $lvl=35
R7_168 224 226 0.166102 $l=0.098 $w=0.059 $lvl=35
R7_169 224 F131 150 $a=0.001764 $lvl=56
R7_170 226 F131 150 $a=0.001764 $lvl=56
R7_171 100 303 0.115254 $l=0.068 $w=0.059 $lvl=35
R7_172 303 305 0.164407 $l=0.097 $w=0.059 $lvl=35
R7_173 303 F149 150 $a=0.001764 $lvl=56
R7_174 305 F149 150 $a=0.001764 $lvl=56
R7_175 F153 F115 0.001 $l=0.122 $w=10 $lvl=5
R7_176 F123 F117 0.001 $l=0.122 $w=10 $lvl=5
R7_177 F131 F125 0.001 $l=0.122 $w=10 $lvl=5
R7_178 F149 F147 0.001 $l=0.122 $w=10 $lvl=5

*|NET gnd! 0.00124254PF
*|I (F96 MM10 BULK B 0 0.152 0.296) // $llx=0.152 $lly=0.296 $urx=0.152 $ury=0.296 $lvl=3
*|I (F72 MM24 BULK B 0 1.672 0.253) // $llx=1.672 $lly=0.253 $urx=1.672 $ury=0.253 $lvl=3
*|I (F76 MM33 BULK B 0 1.824 0.253) // $llx=1.824 $lly=0.253 $urx=1.824 $ury=0.253 $lvl=3
*|I (F80 MM29 BULK B 0 1.976 0.253) // $llx=1.976 $lly=0.253 $urx=1.976 $ury=0.253 $lvl=3
*|I (F84 MM28 BULK B 0 2.128 0.253) // $llx=2.128 $lly=0.253 $urx=2.128 $ury=0.253 $lvl=3
*|I (F88 MM3 BULK B 0 2.28 0.253) // $llx=2.28 $lly=0.253 $urx=2.28 $ury=0.253 $lvl=3
*|I (F92 MM17 BULK B 0 0.76 0.253) // $llx=0.76 $lly=0.253 $urx=0.76 $ury=0.253 $lvl=3
*|I (F44 MM4 BULK B 0 0.456 0.253) // $llx=0.456 $lly=0.253 $urx=0.456 $ury=0.253 $lvl=3
*|I (F48 MM16 BULK B 0 0.608 0.253) // $llx=0.608 $lly=0.253 $urx=0.608 $ury=0.253 $lvl=3
*|I (F52 MM12 BULK B 0 0.912 0.253) // $llx=0.912 $lly=0.253 $urx=0.912 $ury=0.253 $lvl=3